data_image0
_chemical_formula_structural       Ti96I384
_chemical_formula_sum              "Ti96 I384"
_cell_length_a       57.3562
_cell_length_b       58.0067
_cell_length_c       28.1041
_cell_angle_alpha    88.7757
_cell_angle_beta     88.7757
_cell_angle_gamma    62.1586

_space_group_name_H-M_alt    "P 1"
_space_group_IT_number       1

loop_
  _space_group_symop_operation_xyz
  'x, y, z'

loop_
  _atom_site_type_symbol
  _atom_site_label
  _atom_site_symmetry_multiplicity
  _atom_site_fract_x
  _atom_site_fract_y
  _atom_site_fract_z
  _atom_site_occupancy
  Ti  Ti1       1.0  0.90878  0.71699  0.00544  1.0000
  Ti  Ti2       1.0  0.81497  0.96940  0.05526  1.0000
  Ti  Ti3       1.0  0.82385  0.71745  0.51049  1.0000
  Ti  Ti4       1.0  0.33518  0.24064  0.31816  1.0000
  Ti  Ti5       1.0  0.10456  0.94680  0.93067  1.0000
  Ti  Ti6       1.0  0.12844  0.10203  0.31933  1.0000
  Ti  Ti7       1.0  0.95065  0.82835  0.79204  1.0000
  Ti  Ti8       1.0  0.15925  0.86724  0.58424  1.0000
  Ti  Ti9       1.0  0.76686  0.14395  0.90596  1.0000
  Ti  Ti10      1.0  0.48000  0.98408  0.17271  1.0000
  Ti  Ti11      1.0  0.06765  0.57004  0.96485  1.0000
  Ti  Ti12      1.0  0.67273  0.89548  0.85110  1.0000
  Ti  Ti13      1.0  0.37332  0.24801  0.96000  1.0000
  Ti  Ti14      1.0  0.13067  0.34027  0.26132  1.0000
  Ti  Ti15      1.0  0.25998  0.05584  0.75825  1.0000
  Ti  Ti16      1.0  0.00166  0.90147  0.39145  1.0000
  Ti  Ti17      1.0  0.14227  0.65411  0.12506  1.0000
  Ti  Ti18      1.0  0.91305  0.39102  0.16487  1.0000
  Ti  Ti19      1.0  0.73183  0.67807  0.27369  1.0000
  Ti  Ti20      1.0  0.69477  0.81848  0.42352  1.0000
  Ti  Ti21      1.0  0.31326  0.41526  0.18918  1.0000
  Ti  Ti22      1.0  0.50908  0.87422  0.53232  1.0000
  Ti  Ti23      1.0  0.54707  0.84075  0.88260  1.0000
  Ti  Ti24      1.0  0.58548  0.92317  0.62900  1.0000
  Ti  Ti25      1.0  0.23720  0.23082  0.48546  1.0000
  Ti  Ti26      1.0  0.25369  0.34622  0.82819  1.0000
  Ti  Ti27      1.0  0.32367  0.55128  0.47403  1.0000
  Ti  Ti28      1.0  0.51666  0.72619  0.50237  1.0000
  Ti  Ti29      1.0  0.80835  0.40473  0.43711  1.0000
  Ti  Ti30      1.0  0.83465  0.49231  0.60923  1.0000
  Ti  Ti31      1.0  0.72957  0.38250  0.14601  1.0000
  Ti  Ti32      1.0  0.94828  0.06438  0.25181  1.0000
  Ti  Ti33      1.0  0.02055  0.13548  0.55385  1.0000
  Ti  Ti34      1.0  0.91028  0.76130  0.27212  1.0000
  Ti  Ti35      1.0  0.66938  0.64452  0.84749  1.0000
  Ti  Ti36      1.0  0.99866  0.53219  0.64545  1.0000
  Ti  Ti37      1.0  0.89515  0.26661  0.22870  1.0000
  Ti  Ti38      1.0  0.61665  0.28420  0.38766  1.0000
  Ti  Ti39      1.0  0.30662  0.01632  0.49101  1.0000
  Ti  Ti40      1.0  0.33764  0.71561  0.02525  1.0000
  Ti  Ti41      1.0  0.65961  0.40622  0.61205  1.0000
  Ti  Ti42      1.0  0.48415  0.74630  0.08156  1.0000
  Ti  Ti43      1.0  0.99624  0.96018  0.84597  1.0000
  Ti  Ti44      1.0  0.96277  0.54548  0.27170  1.0000
  Ti  Ti45      1.0  0.97869  0.46634  0.86925  1.0000
  Ti  Ti46      1.0  0.66270  0.08256  0.50814  1.0000
  Ti  Ti47      1.0  0.36956  0.34115  0.60144  1.0000
  Ti  Ti48      1.0  0.53498  0.48835  0.10179  1.0000
  Ti  Ti49      1.0  0.90132  0.69271  0.90277  1.0000
  Ti  Ti50      1.0  0.85887  0.99958  0.14477  1.0000
  Ti  Ti51      1.0  0.72930  0.01689  0.00305  1.0000
  Ti  Ti52      1.0  0.31762  0.18753  0.28204  1.0000
  Ti  Ti53      1.0  0.13900  0.89287  0.99502  1.0000
  Ti  Ti54      1.0  0.11819  0.10228  0.15952  1.0000
  Ti  Ti55      1.0  0.00777  0.79490  0.86710  1.0000
  Ti  Ti56      1.0  0.15249  0.81898  0.51068  1.0000
  Ti  Ti57      1.0  0.71922  0.17055  0.98079  1.0000
  Ti  Ti58      1.0  0.08967  0.87679  0.85834  1.0000
  Ti  Ti59      1.0  0.49748  0.96126  0.29748  1.0000
  Ti  Ti60      1.0  0.70117  0.92406  0.76942  1.0000
  Ti  Ti61      1.0  0.31091  0.97566  0.75325  1.0000
  Ti  Ti62      1.0  0.41058  0.17123  0.00211  1.0000
  Ti  Ti63      1.0  0.14834  0.38033  0.32996  1.0000
  Ti  Ti64      1.0  0.96041  0.34789  0.26309  1.0000
  Ti  Ti65      1.0  0.06443  0.89795  0.30933  1.0000
  Ti  Ti66      1.0  0.28353  0.66033  0.62945  1.0000
  Ti  Ti67      1.0  0.68043  0.71401  0.14963  1.0000
  Ti  Ti68      1.0  0.71186  0.87231  0.42944  1.0000
  Ti  Ti69      1.0  0.35368  0.42717  0.21699  1.0000
  Ti  Ti70      1.0  0.55631  0.90803  0.51864  1.0000
  Ti  Ti71      1.0  0.50009  0.92918  0.86546  1.0000
  Ti  Ti72      1.0  0.52784  0.76891  0.80939  1.0000
  Ti  Ti73      1.0  0.33894  0.49669  0.57665  1.0000
  Ti  Ti74      1.0  0.28490  0.24299  0.59149  1.0000
  Ti  Ti75      1.0  0.20064  0.33270  0.83909  1.0000
  Ti  Ti76      1.0  0.78750  0.56362  0.66770  1.0000
  Ti  Ti77      1.0  0.56064  0.69745  0.42932  1.0000
  Ti  Ti78      1.0  0.78691  0.47730  0.45809  1.0000
  Ti  Ti79      1.0  0.07206  0.10360  0.60928  1.0000
  Ti  Ti80      1.0  0.75941  0.42818  0.13735  1.0000
  Ti  Ti81      1.0  0.88823  0.12334  0.25820  1.0000
  Ti  Ti82      1.0  0.95134  0.77632  0.22099  1.0000
  Ti  Ti83      1.0  0.62936  0.59757  0.83793  1.0000
  Ti  Ti84      1.0  0.94591  0.60102  0.65872  1.0000
  Ti  Ti85      1.0  0.84295  0.25110  0.11631  1.0000
  Ti  Ti86      1.0  0.54609  0.29286  0.44474  1.0000
  Ti  Ti87      1.0  0.36035  0.01207  0.39438  1.0000
  Ti  Ti88      1.0  0.26398  0.75701  0.99813  1.0000
  Ti  Ti89      1.0  0.64897  0.47593  0.61332  1.0000
  Ti  Ti90      1.0  0.53122  0.70382  0.12255  1.0000
  Ti  Ti91      1.0  0.95469  0.42452  0.80942  1.0000
  Ti  Ti92      1.0  0.86585  0.10584  0.62427  1.0000
  Ti  Ti93      1.0  0.01725  0.56047  0.22327  1.0000
  Ti  Ti94      1.0  0.53947  0.43320  0.08955  1.0000
  Ti  Ti95      1.0  0.61459  0.07826  0.50545  1.0000
  Ti  Ti96      1.0  0.39189  0.30934  0.68488  1.0000
  I   I1        1.0  0.88588  0.95464  0.17907  1.0000
  I   I2        1.0  0.83473  0.94488  0.97404  1.0000
  I   I3        1.0  0.88214  0.75180  0.06759  1.0000
  I   I4        1.0  0.14975  0.91166  0.90232  1.0000
  I   I5        1.0  0.17335  0.05783  0.32011  1.0000
  I   I6        1.0  0.16392  0.09621  0.12290  1.0000
  I   I7        1.0  0.17390  0.79091  0.43763  1.0000
  I   I8        1.0  0.11014  0.81385  0.48990  1.0000
  I   I9        1.0  0.76599  0.10473  0.95102  1.0000
  I   I10       1.0  0.45173  0.00247  0.26385  1.0000
  I   I11       1.0  0.03664  0.54938  0.98291  1.0000
  I   I12       1.0  0.08631  0.92779  0.85425  1.0000
  I   I13       1.0  0.38144  0.21601  0.05067  1.0000
  I   I14       1.0  0.15830  0.39140  0.41334  1.0000
  I   I15       1.0  0.21818  0.07355  0.70175  1.0000
  I   I16       1.0  0.02310  0.85697  0.34528  1.0000
  I   I17       1.0  0.24398  0.69507  0.67452  1.0000
  I   I18       1.0  0.90818  0.36347  0.26635  1.0000
  I   I19       1.0  0.74722  0.88609  0.39226  1.0000
  I   I20       1.0  0.35632  0.37194  0.22472  1.0000
  I   I21       1.0  0.31664  0.44753  0.28477  1.0000
  I   I22       1.0  0.51409  0.93028  0.77783  1.0000
  I   I23       1.0  0.58553  0.80964  0.82762  1.0000
  I   I24       1.0  0.54295  0.95446  0.55109  1.0000
  I   I25       1.0  0.28241  0.24052  0.49042  1.0000
  I   I26       1.0  0.27473  0.33915  0.74411  1.0000
  I   I27       1.0  0.26972  0.56992  0.47296  1.0000
  I   I28       1.0  0.50630  0.74656  0.42197  1.0000
  I   I29       1.0  0.78507  0.42902  0.52110  1.0000
  I   I30       1.0  0.77686  0.52381  0.62801  1.0000
  I   I31       1.0  0.78507  0.42537  0.21281  1.0000
  I   I32       1.0  0.86076  0.17236  0.29404  1.0000
  I   I33       1.0  0.05520  0.14979  0.64647  1.0000
  I   I34       1.0  0.68000  0.67551  0.90351  1.0000
  I   I35       1.0  0.99533  0.58044  0.61665  1.0000
  I   I36       1.0  0.93468  0.79848  0.13662  1.0000
  I   I37       1.0  0.88102  0.27069  0.13383  1.0000
  I   I38       1.0  0.33756  0.97910  0.41366  1.0000
  I   I39       1.0  0.86434  0.24976  0.03346  1.0000
  I   I40       1.0  0.61574  0.45710  0.60800  1.0000
  I   I41       1.0  0.51236  0.68973  0.04839  1.0000
  I   I42       1.0  0.29732  0.70914  0.97281  1.0000
  I   I43       1.0  0.02024  0.98515  0.79335  1.0000
  I   I44       1.0  0.98278  0.57545  0.30814  1.0000
  I   I45       1.0  0.95121  0.49636  0.94487  1.0000
  I   I46       1.0  0.63337  0.09603  0.42707  1.0000
  I   I47       1.0  0.38097  0.37123  0.54629  1.0000
  I   I48       1.0  0.49088  0.48097  0.08618  1.0000
  I   I49       1.0  0.95361  0.71238  0.03239  1.0000
  I   I50       1.0  0.85776  0.99346  0.04789  1.0000
  I   I51       1.0  0.73054  0.98342  0.93481  1.0000
  I   I52       1.0  0.34840  0.15600  0.35183  1.0000
  I   I53       1.0  0.14034  0.94112  0.01078  1.0000
  I   I54       1.0  0.07130  0.14038  0.14495  1.0000
  I   I55       1.0  0.00525  0.78241  0.78258  1.0000
  I   I56       1.0  0.13667  0.87238  0.48390  1.0000
  I   I57       1.0  0.69528  0.15209  0.93239  1.0000
  I   I58       1.0  0.52681  0.97879  0.23581  1.0000
  I   I59       1.0  0.48717  0.02134  0.14219  1.0000
  I   I60       1.0  0.64686  0.94037  0.79826  1.0000
  I   I61       1.0  0.42655  0.13403  0.93537  1.0000
  I   I62       1.0  0.40779  0.13947  0.06305  1.0000
  I   I63       1.0  0.08737  0.37842  0.23805  1.0000
  I   I64       1.0  0.99305  0.91624  0.47815  1.0000
  I   I65       1.0  0.09082  0.92307  0.31284  1.0000
  I   I66       1.0  0.31163  0.68285  0.59922  1.0000
  I   I67       1.0  0.67739  0.74854  0.08925  1.0000
  I   I68       1.0  0.68519  0.79811  0.35152  1.0000
  I   I69       1.0  0.36900  0.40520  0.13505  1.0000
  I   I70       1.0  0.56633  0.85483  0.49802  1.0000
  I   I71       1.0  0.55246  0.88396  0.86800  1.0000
  I   I72       1.0  0.53288  0.73180  0.88064  1.0000
  I   I73       1.0  0.32201  0.59506  0.47844  1.0000
  I   I74       1.0  0.20932  0.34193  0.92989  1.0000
  I   I75       1.0  0.21121  0.33896  0.74288  1.0000
  I   I76       1.0  0.47132  0.72120  0.51027  1.0000
  I   I77       1.0  0.61068  0.65869  0.42677  1.0000
  I   I78       1.0  0.81971  0.47976  0.52441  1.0000
  I   I79       1.0  0.08148  0.07257  0.68477  1.0000
  I   I80       1.0  0.72362  0.41270  0.06374  1.0000
  I   I81       1.0  0.96506  0.04507  0.17085  1.0000
  I   I82       1.0  0.96706  0.80938  0.24505  1.0000
  I   I83       1.0  0.66753  0.60844  0.78100  1.0000
  I   I84       1.0  0.94602  0.64391  0.62361  1.0000
  I   I85       1.0  0.82569  0.21861  0.11026  1.0000
  I   I86       1.0  0.55369  0.25586  0.51009  1.0000
  I   I87       1.0  0.28906  0.05586  0.54924  1.0000
  I   I88       1.0  0.36498  0.71522  0.95356  1.0000
  I   I89       1.0  0.66937  0.45724  0.70299  1.0000
  I   I90       1.0  0.45058  0.73209  0.10756  1.0000
  I   I91       1.0  0.92422  0.43193  0.72948  1.0000
  I   I92       1.0  0.89028  0.13152  0.59508  1.0000
  I   I93       1.0  0.06085  0.54821  0.26219  1.0000
  I   I94       1.0  0.54536  0.46406  0.01513  1.0000
  I   I95       1.0  0.61237  0.04136  0.56513  1.0000
  I   I96       1.0  0.41829  0.30136  0.60044  1.0000
  I   I97       1.0  0.78046  0.72867  0.55528  1.0000
  I   I98       1.0  0.91459  0.73254  0.91202  1.0000
  I   I99       1.0  0.78241  0.01609  0.00557  1.0000
  I   I100      1.0  0.29706  0.22813  0.34411  1.0000
  I   I101      1.0  0.38347  0.21515  0.32669  1.0000
  I   I102      1.0  0.10573  0.87306  0.96629  1.0000
  I   I103      1.0  0.98383  0.81344  0.95284  1.0000
  I   I104      1.0  0.93409  0.80022  0.74389  1.0000
  I   I105      1.0  0.76412  0.17585  0.99769  1.0000
  I   I106      1.0  0.65498  0.91948  0.93321  1.0000
  I   I107      1.0  0.49854  0.96301  0.07942  1.0000
  I   I108      1.0  0.69058  0.96257  0.70190  1.0000
  I   I109      1.0  0.26418  0.99681  0.80716  1.0000
  I   I110      1.0  0.36714  0.20377  0.93154  1.0000
  I   I111      1.0  0.11820  0.35389  0.35628  1.0000
  I   I112      1.0  0.88215  0.38370  0.10782  1.0000
  I   I113      1.0  0.00942  0.93684  0.32974  1.0000
  I   I114      1.0  0.17062  0.60084  0.13359  1.0000
  I   I115      1.0  0.69299  0.66902  0.22225  1.0000
  I   I116      1.0  0.68389  0.68132  0.08067  1.0000
  I   I117      1.0  0.73050  0.82750  0.36637  1.0000
  I   I118      1.0  0.56887  0.91511  0.42831  1.0000
  I   I119      1.0  0.50274  0.86425  0.44251  1.0000
  I   I120      1.0  0.51531  0.81220  0.76343  1.0000
  I   I121      1.0  0.33282  0.54692  0.37519  1.0000
  I   I122      1.0  0.26615  0.25649  0.67582  1.0000
  I   I123      1.0  0.25981  0.29792  0.83799  1.0000
  I   I124      1.0  0.83163  0.53994  0.57011  1.0000
  I   I125      1.0  0.53414  0.67083  0.42023  1.0000
  I   I126      1.0  0.83738  0.42815  0.41861  1.0000
  I   I127      1.0  0.00135  0.12184  0.48140  1.0000
  I   I128      1.0  0.69920  0.36542  0.09280  1.0000
  I   I129      1.0  0.89611  0.07503  0.25113  1.0000
  I   I130      1.0  0.00361  0.51688  0.56165  1.0000
  I   I131      1.0  0.91233  0.72582  0.32697  1.0000
  I   I132      1.0  0.64160  0.57150  0.91767  1.0000
  I   I133      1.0  0.26019  0.02222  0.45319  1.0000
  I   I134      1.0  0.56897  0.29607  0.35883  1.0000
  I   I135      1.0  0.62537  0.32550  0.39154  1.0000
  I   I136      1.0  0.45868  0.76904  0.99994  1.0000
  I   I137      1.0  0.29640  0.77537  0.97258  1.0000
  I   I138      1.0  0.69707  0.36492  0.65460  1.0000
  I   I139      1.0  0.99136  0.44298  0.77681  1.0000
  I   I140      1.0  0.86204  0.08733  0.54534  1.0000
  I   I141      1.0  0.01429  0.50592  0.26681  1.0000
  I   I142      1.0  0.51946  0.51401  0.17996  1.0000
  I   I143      1.0  0.71568  0.05654  0.53021  1.0000
  I   I144      1.0  0.38589  0.36147  0.68185  1.0000
  I   I145      1.0  0.85590  0.72988  0.97210  1.0000
  I   I146      1.0  0.84594  0.92353  0.10374  1.0000
  I   I147      1.0  0.86846  0.67874  0.53824  1.0000
  I   I148      1.0  0.34791  0.14507  0.23200  1.0000
  I   I149      1.0  0.12960  0.89138  0.09139  1.0000
  I   I150      1.0  0.08927  0.09413  0.35009  1.0000
  I   I151      1.0  0.05637  0.78295  0.84790  1.0000
  I   I152      1.0  0.11163  0.87246  0.60795  1.0000
  I   I153      1.0  0.81837  0.13254  0.91624  1.0000
  I   I154      1.0  0.08707  0.87692  0.76460  1.0000
  I   I155      1.0  0.05065  0.61043  0.90856  1.0000
  I   I156      1.0  0.64750  0.86724  0.85606  1.0000
  I   I157      1.0  0.31266  0.93053  0.72922  1.0000
  I   I158      1.0  0.11247  0.42766  0.31892  1.0000
  I   I159      1.0  0.31586  0.02300  0.76847  1.0000
  I   I160      1.0  0.95648  0.33654  0.16043  1.0000
  I   I161      1.0  0.09499  0.66491  0.11541  1.0000
  I   I162      1.0  0.88796  0.43689  0.21105  1.0000
  I   I163      1.0  0.77853  0.67326  0.26124  1.0000
  I   I164      1.0  0.67369  0.79862  0.48747  1.0000
  I   I165      1.0  0.30858  0.37965  0.12991  1.0000
  I   I166      1.0  0.50696  0.91602  0.49100  1.0000
  I   I167      1.0  0.57659  0.82941  0.95653  1.0000
  I   I168      1.0  0.62220  0.88801  0.68655  1.0000
  I   I169      1.0  0.23136  0.18996  0.48205  1.0000
  I   I170      1.0  0.26526  0.20543  0.57452  1.0000
  I   I171      1.0  0.36607  0.52597  0.53869  1.0000
  I   I172      1.0  0.82599  0.57559  0.69736  1.0000
  I   I173      1.0  0.84743  0.36199  0.47058  1.0000
  I   I174      1.0  0.82271  0.45657  0.64699  1.0000
  I   I175      1.0  0.79319  0.41993  0.06681  1.0000
  I   I176      1.0  0.92837  0.12075  0.20655  1.0000
  I   I177      1.0  0.99207  0.13744  0.63385  1.0000
  I   I178      1.0  0.85778  0.78569  0.25711  1.0000
  I   I179      1.0  0.71566  0.60197  0.86780  1.0000
  I   I180      1.0  0.04546  0.49954  0.67290  1.0000
  I   I181      1.0  0.85047  0.25666  0.21660  1.0000
  I   I182      1.0  0.51339  0.27641  0.41176  1.0000
  I   I183      1.0  0.30547  0.97511  0.52764  1.0000
  I   I184      1.0  0.36813  0.71926  0.08739  1.0000
  I   I185      1.0  0.65451  0.38179  0.53840  1.0000
  I   I186      1.0  0.54870  0.73577  0.16620  1.0000
  I   I187      1.0  0.88729  0.08603  0.70359  1.0000
  I   I188      1.0  0.92277  0.59589  0.25535  1.0000
  I   I189      1.0  0.02038  0.43441  0.91409  1.0000
  I   I190      1.0  0.59386  0.05535  0.44998  1.0000
  I   I191      1.0  0.38193  0.26957  0.66630  1.0000
  I   I192      1.0  0.53108  0.40640  0.01498  1.0000
  I   I193      1.0  0.95025  0.65519  0.89350  1.0000
  I   I194      1.0  0.81506  0.98407  0.14563  1.0000
  I   I195      1.0  0.81273  0.71639  0.42482  1.0000
  I   I196      1.0  0.32601  0.28433  0.26927  1.0000
  I   I197      1.0  0.03554  0.91669  0.84371  1.0000
  I   I198      1.0  0.10770  0.08075  0.08346  1.0000
  I   I199      1.0  0.94321  0.85746  0.71708  1.0000
  I   I200      1.0  0.17231  0.77636  0.56906  1.0000
  I   I201      1.0  0.76262  0.12749  0.82852  1.0000
  I   I202      1.0  0.51085  0.98605  0.36137  1.0000
  I   I203      1.0  0.06418  0.58934  0.05205  1.0000
  I   I204      1.0  0.69998  0.95240  0.84460  1.0000
  I   I205      1.0  0.41884  0.24676  0.95496  1.0000
  I   I206      1.0  0.18115  0.32227  0.31208  1.0000
  I   I207      1.0  0.28609  0.00601  0.67943  1.0000
  I   I208      1.0  0.94892  0.91796  0.37025  1.0000
  I   I209      1.0  0.15179  0.66936  0.20109  1.0000
  I   I210      1.0  0.94581  0.39464  0.10290  1.0000
  I   I211      1.0  0.72200  0.71887  0.19864  1.0000
  I   I212      1.0  0.74293  0.78791  0.45413  1.0000
  I   I213      1.0  0.39684  0.40397  0.26867  1.0000
  I   I214      1.0  0.45950  0.89167  0.56608  1.0000
  I   I215      1.0  0.49657  0.87969  0.86257  1.0000
  I   I216      1.0  0.60119  0.95790  0.61490  1.0000
  I   I217      1.0  0.19790  0.25849  0.55123  1.0000
  I   I218      1.0  0.28112  0.34737  0.90298  1.0000
  I   I219      1.0  0.29037  0.51008  0.58538  1.0000
  I   I220      1.0  0.56844  0.72141  0.49800  1.0000
  I   I221      1.0  0.76280  0.45355  0.39668  1.0000
  I   I222      1.0  0.88490  0.46192  0.58742  1.0000
  I   I223      1.0  0.78380  0.36669  0.14321  1.0000
  I   I224      1.0  0.95132  0.01967  0.28416  1.0000
  I   I225      1.0  0.99224  0.18369  0.53948  1.0000
  I   I226      1.0  0.96458  0.74153  0.30415  1.0000
  I   I227      1.0  0.67853  0.66544  0.77315  1.0000
  I   I228      1.0  0.91597  0.59854  0.59552  1.0000
  I   I229      1.0  0.86335  0.28249  0.30917  1.0000
  I   I230      1.0  0.62892  0.27700  0.29739  1.0000
  I   I231      1.0  0.32375  0.05954  0.39216  1.0000
  I   I232      1.0  0.35572  0.66654  0.05627  1.0000
  I   I233      1.0  0.63497  0.38918  0.67894  1.0000
  I   I234      1.0  0.57262  0.65754  0.13305  1.0000
  I   I235      1.0  0.96619  0.95185  0.78040  1.0000
  I   I236      1.0  0.94298  0.52565  0.21709  1.0000
  I   I237      1.0  0.92785  0.47919  0.83207  1.0000
  I   I238      1.0  0.66953  0.03383  0.47148  1.0000
  I   I239      1.0  0.34670  0.32303  0.54109  1.0000
  I   I240      1.0  0.51515  0.52952  0.04203  1.0000
  I   I241      1.0  0.90870  0.67306  0.00095  1.0000
  I   I242      1.0  0.76365  0.97403  0.07053  1.0000
  I   I243      1.0  0.84365  0.74872  0.50617  1.0000
  I   I244      1.0  0.32590  0.25991  0.40522  1.0000
  I   I245      1.0  0.07019  0.94837  0.99430  1.0000
  I   I246      1.0  0.12493  0.12581  0.39833  1.0000
  I   I247      1.0  0.91084  0.84687  0.85156  1.0000
  I   I248      1.0  0.17191  0.90282  0.54705  1.0000
  I   I249      1.0  0.72952  0.19508  0.88863  1.0000
  I   I250      1.0  0.43323  0.99387  0.13194  1.0000
  I   I251      1.0  0.10537  0.52874  0.93181  1.0000
  I   I252      1.0  0.71666  0.87076  0.90436  1.0000
  I   I253      1.0  0.34475  0.29303  0.00692  1.0000
  I   I254      1.0  0.15193  0.32713  0.17708  1.0000
  I   I255      1.0  0.34601  0.95750  0.81746  1.0000
  I   I256      1.0  0.10224  0.84892  0.30153  1.0000
  I   I257      1.0  0.16261  0.66036  0.04418  1.0000
  I   I258      1.0  0.97932  0.30336  0.30286  1.0000
  I   I259      1.0  0.74054  0.64337  0.34442  1.0000
  I   I260      1.0  0.71905  0.85674  0.51786  1.0000
  I   I261      1.0  0.26860  0.42849  0.22162  1.0000
  I   I262      1.0  0.52797  0.82672  0.57852  1.0000
  I   I263      1.0  0.52189  0.80334  0.89095  1.0000
  I   I264      1.0  0.55735  0.94993  0.70126  1.0000
  I   I265      1.0  0.21628  0.25241  0.40477  1.0000
  I   I266      1.0  0.18456  0.29624  0.83298  1.0000
  I   I267      1.0  0.32918  0.49824  0.48195  1.0000
  I   I268      1.0  0.52888  0.69094  0.56959  1.0000
  I   I269      1.0  0.80288  0.37628  0.36270  1.0000
  I   I270      1.0  0.82864  0.51200  0.69211  1.0000
  I   I271      1.0  0.74051  0.35153  0.22233  1.0000
  I   I272      1.0  0.98635  0.06949  0.29242  1.0000
  I   I273      1.0  0.06176  0.13468  0.50705  1.0000
  I   I274      1.0  0.90826  0.80985  0.28326  1.0000
  I   I275      1.0  0.64375  0.55352  0.79644  1.0000
  I   I276      1.0  0.96491  0.50956  0.65749  1.0000
  I   I277      1.0  0.92734  0.22335  0.26748  1.0000
  I   I278      1.0  0.64565  0.23858  0.42805  1.0000
  I   I279      1.0  0.41311  0.99630  0.40174  1.0000
  I   I280      1.0  0.23991  0.76428  0.91465  1.0000
  I   I281      1.0  0.66657  0.48908  0.53924  1.0000
  I   I282      1.0  0.45756  0.79351  0.11830  1.0000
  I   I283      1.0  0.98471  0.00572  0.89887  1.0000
  I   I284      1.0  0.94170  0.54235  0.35617  1.0000
  I   I285      1.0  0.99559  0.49943  0.83607  1.0000
  I   I286      1.0  0.66151  0.12741  0.49754  1.0000
  I   I287      1.0  0.43773  0.28224  0.72398  1.0000
  I   I288      1.0  0.58746  0.45694  0.13550  1.0000
  I   I289      1.0  0.87114  0.67133  0.88008  1.0000
  I   I290      1.0  0.88719  0.02388  0.15119  1.0000
  I   I291      1.0  0.72221  0.04899  0.93280  1.0000
  I   I292      1.0  0.32711  0.22165  0.22447  1.0000
  I   I293      1.0  0.17420  0.84562  0.97946  1.0000
  I   I294      1.0  0.13551  0.12518  0.24130  1.0000
  I   I295      1.0  0.97994  0.85343  0.83580  1.0000
  I   I296      1.0  0.18649  0.84960  0.66146  1.0000
  I   I297      1.0  0.72449  0.15195  0.07497  1.0000
  I   I298      1.0  0.07301  0.84140  0.88761  1.0000
  I   I299      1.0  0.47997  0.93873  0.22649  1.0000
  I   I300      1.0  0.75018  0.89611  0.74615  1.0000
  I   I301      1.0  0.24686  0.06805  0.84695  1.0000
  I   I302      1.0  0.35916  0.26715  0.87074  1.0000
  I   I303      1.0  0.12367  0.29810  0.26737  1.0000
  I   I304      1.0  0.95764  0.37358  0.34341  1.0000
  I   I305      1.0  0.04771  0.90347  0.21727  1.0000
  I   I306      1.0  0.26231  0.65148  0.55663  1.0000
  I   I307      1.0  0.69966  0.71947  0.32389  1.0000
  I   I308      1.0  0.66123  0.86611  0.41573  1.0000
  I   I309      1.0  0.37607  0.45914  0.19182  1.0000
  I   I310      1.0  0.55310  0.89306  0.61926  1.0000
  I   I311      1.0  0.44874  0.95773  0.86760  1.0000
  I   I312      1.0  0.57354  0.73280  0.77933  1.0000
  I   I313      1.0  0.34859  0.51364  0.65792  1.0000
  I   I314      1.0  0.30028  0.28012  0.58773  1.0000
  I   I315      1.0  0.22062  0.39615  0.81876  1.0000
  I   I316      1.0  0.75949  0.57270  0.74427  1.0000
  I   I317      1.0  0.56520  0.71254  0.34251  1.0000
  I   I318      1.0  0.73565  0.50832  0.48135  1.0000
  I   I319      1.0  0.05330  0.07365  0.56758  1.0000
  I   I320      1.0  0.72155  0.42521  0.20906  1.0000
  I   I321      1.0  0.92076  0.09417  0.34000  1.0000
  I   I322      1.0  0.99854  0.73685  0.18850  1.0000
  I   I323      1.0  0.57844  0.61943  0.84302  1.0000
  I   I324      1.0  0.91488  0.62844  0.72922  1.0000
  I   I325      1.0  0.79959  0.29579  0.10348  1.0000
  I   I326      1.0  0.58652  0.30469  0.47599  1.0000
  I   I327      1.0  0.37217  0.00076  0.30166  1.0000
  I   I328      1.0  0.22383  0.77005  0.05675  1.0000
  I   I329      1.0  0.69869  0.41747  0.59319  1.0000
  I   I330      1.0  0.53660  0.73974  0.04447  1.0000
  I   I331      1.0  0.93068  0.40861  0.86602  1.0000
  I   I332      1.0  0.97435  0.94183  0.90861  1.0000
  I   I333      1.0  0.00698  0.60327  0.18748  1.0000
  I   I334      1.0  0.54070  0.42824  0.18279  1.0000
  I   I335      1.0  0.57050  0.12134  0.51197  1.0000
  I   I336      1.0  0.32159  0.36792  0.64414  1.0000
  I   I337      1.0  0.88954  0.70425  0.81428  1.0000
  I   I338      1.0  0.82365  0.05019  0.17533  1.0000
  I   I339      1.0  0.67918  0.04002  0.01531  1.0000
  I   I340      1.0  0.27343  0.18697  0.25949  1.0000
  I   I341      1.0  0.09656  0.99323  0.92094  1.0000
  I   I342      1.0  0.11995  0.07155  0.23029  1.0000
  I   I343      1.0  0.00988  0.75077  0.89822  1.0000
  I   I344      1.0  0.20038  0.82171  0.53983  1.0000
  I   I345      1.0  0.67639  0.21319  0.98861  1.0000
  I   I346      1.0  0.14382  0.85342  0.86326  1.0000
  I   I347      1.0  0.51675  0.91648  0.34865  1.0000
  I   I348      1.0  0.69212  0.88248  0.75913  1.0000
  I   I349      1.0  0.26095  0.10017  0.74922  1.0000
  I   I350      1.0  0.45531  0.16696  0.03116  1.0000
  I   I351      1.0  0.18900  0.38921  0.30331  1.0000
  I   I352      1.0  0.96273  0.39229  0.22136  1.0000
  I   I353      1.0  0.05447  0.89280  0.41265  1.0000
  I   I354      1.0  0.31618  0.61889  0.67592  1.0000
  I   I355      1.0  0.63444  0.73635  0.19548  1.0000
  I   I356      1.0  0.68220  0.92028  0.44343  1.0000
  I   I357      1.0  0.30898  0.45797  0.14218  1.0000
  I   I358      1.0  0.61646  0.88928  0.54500  1.0000
  I   I359      1.0  0.51467  0.96331  0.88741  1.0000
  I   I360      1.0  0.50785  0.74820  0.75768  1.0000
  I   I361      1.0  0.37169  0.44921  0.58940  1.0000
  I   I362      1.0  0.33130  0.20549  0.60064  1.0000
  I   I363      1.0  0.15457  0.36949  0.83259  1.0000
  I   I364      1.0  0.76008  0.59679  0.60193  1.0000
  I   I365      1.0  0.50437  0.76130  0.57411  1.0000
  I   I366      1.0  0.80494  0.49646  0.39471  1.0000
  I   I367      1.0  0.12236  0.08131  0.59801  1.0000
  I   I368      1.0  0.73976  0.47721  0.12221  1.0000
  I   I369      1.0  0.85179  0.13981  0.19260  1.0000
  I   I370      1.0  0.91956  0.73468  0.18732  1.0000
  I   I371      1.0  0.63373  0.63533  0.90438  1.0000
  I   I372      1.0  0.97853  0.55631  0.73049  1.0000
  I   I373      1.0  0.90755  0.30327  0.23200  1.0000
  I   I374      1.0  0.51494  0.33623  0.49006  1.0000
  I   I375      1.0  0.35720  0.00958  0.48986  1.0000
  I   I376      1.0  0.29347  0.73836  0.09052  1.0000
  I   I377      1.0  0.61309  0.52438  0.62912  1.0000
  I   I378      1.0  0.50490  0.69485  0.18824  1.0000
  I   I379      1.0  0.99454  0.37576  0.80397  1.0000
  I   I380      1.0  0.82115  0.14070  0.65352  1.0000
  I   I381      1.0  0.02913  0.53280  0.14731  1.0000
  I   I382      1.0  0.58828  0.39674  0.07969  1.0000
  I   I383      1.0  0.64678  0.09171  0.60251  1.0000
  I   I384      1.0  0.36243  0.32530  0.76400  1.0000
