data_image0
_chemical_formula_structural       Ti96I384
_chemical_formula_sum              "Ti96 I384"
_cell_length_a       71.3024
_cell_length_b       71.1738
_cell_length_c       34.8446
_cell_angle_alpha    88.7757
_cell_angle_beta     88.7757
_cell_angle_gamma    62.1586

_space_group_name_H-M_alt    "P 1"
_space_group_IT_number       1

loop_
  _space_group_symop_operation_xyz
  'x, y, z'

loop_
  _atom_site_type_symbol
  _atom_site_label
  _atom_site_symmetry_multiplicity
  _atom_site_fract_x
  _atom_site_fract_y
  _atom_site_fract_z
  _atom_site_occupancy
  Ti  Ti1       1.0  0.20545  0.85951  0.20566  1.0000
  Ti  Ti2       1.0  0.02162  0.03291  0.04492  1.0000
  Ti  Ti3       1.0  0.28584  0.14852  0.35714  1.0000
  Ti  Ti4       1.0  0.99427  0.65978  0.74220  1.0000
  Ti  Ti5       1.0  0.42997  0.47629  0.24262  1.0000
  Ti  Ti6       1.0  0.87335  0.79614  0.44637  1.0000
  Ti  Ti7       1.0  0.55858  0.96694  0.58974  1.0000
  Ti  Ti8       1.0  0.11653  0.56925  0.42994  1.0000
  Ti  Ti9       1.0  0.41835  0.23137  0.92471  1.0000
  Ti  Ti10      1.0  0.52869  0.45618  0.77079  1.0000
  Ti  Ti11      1.0  0.22033  0.49323  0.96468  1.0000
  Ti  Ti12      1.0  0.99348  0.62977  0.39717  1.0000
  Ti  Ti13      1.0  0.73110  0.54738  0.98020  1.0000
  Ti  Ti14      1.0  0.02599  0.81634  0.80769  1.0000
  Ti  Ti15      1.0  0.63834  0.59631  0.68298  1.0000
  Ti  Ti16      1.0  0.49524  0.52220  0.74493  1.0000
  Ti  Ti17      1.0  0.22677  0.52220  0.77146  1.0000
  Ti  Ti18      1.0  0.43759  0.02903  0.54351  1.0000
  Ti  Ti19      1.0  0.38573  0.57749  0.35051  1.0000
  Ti  Ti20      1.0  0.13586  0.86108  0.38481  1.0000
  Ti  Ti21      1.0  0.13471  0.52233  0.37621  1.0000
  Ti  Ti22      1.0  0.70765  0.66890  0.43350  1.0000
  Ti  Ti23      1.0  0.13644  0.09323  0.17874  1.0000
  Ti  Ti24      1.0  0.94503  0.80349  0.60010  1.0000
  Ti  Ti25      1.0  0.39477  0.37692  0.41890  1.0000
  Ti  Ti26      1.0  0.73548  0.93029  0.81805  1.0000
  Ti  Ti27      1.0  0.74655  0.16394  0.16207  1.0000
  Ti  Ti28      1.0  0.36837  0.96541  0.76448  1.0000
  Ti  Ti29      1.0  0.17952  0.76627  0.88855  1.0000
  Ti  Ti30      1.0  0.26528  0.85866  0.91204  1.0000
  Ti  Ti31      1.0  0.69648  0.09826  0.23049  1.0000
  Ti  Ti32      1.0  0.32675  0.88092  0.19385  1.0000
  Ti  Ti33      1.0  0.25926  0.58515  0.86486  1.0000
  Ti  Ti34      1.0  0.58722  0.53144  0.81291  1.0000
  Ti  Ti35      1.0  0.09975  0.35633  0.63591  1.0000
  Ti  Ti36      1.0  0.92455  0.24603  0.84173  1.0000
  Ti  Ti37      1.0  0.24062  0.09220  0.56611  1.0000
  Ti  Ti38      1.0  0.86883  0.12843  0.47201  1.0000
  Ti  Ti39      1.0  0.60100  0.60787  0.29128  1.0000
  Ti  Ti40      1.0  0.42541  0.67851  0.72640  1.0000
  Ti  Ti41      1.0  0.56338  0.22785  0.62852  1.0000
  Ti  Ti42      1.0  0.04533  0.83064  0.25247  1.0000
  Ti  Ti43      1.0  0.19000  0.88816  0.65853  1.0000
  Ti  Ti44      1.0  0.55323  0.18368  0.72103  1.0000
  Ti  Ti45      1.0  0.09508  0.32803  0.15707  1.0000
  Ti  Ti46      1.0  0.32179  0.94445  0.49111  1.0000
  Ti  Ti47      1.0  0.83738  0.10741  0.73072  1.0000
  Ti  Ti48      1.0  0.95285  0.00035  0.30641  1.0000
  Ti  Ti49      1.0  0.20756  0.89745  0.16775  1.0000
  Ti  Ti50      1.0  0.54971  0.42605  0.05425  1.0000
  Ti  Ti51      1.0  0.99201  0.07151  0.12342  1.0000
  Ti  Ti52      1.0  0.62888  0.35195  0.30107  1.0000
  Ti  Ti53      1.0  0.40487  0.72157  0.48735  1.0000
  Ti  Ti54      1.0  0.88622  0.80709  0.77023  1.0000
  Ti  Ti55      1.0  0.57258  0.96617  0.50998  1.0000
  Ti  Ti56      1.0  0.34623  0.45839  0.08420  1.0000
  Ti  Ti57      1.0  0.42058  0.18912  0.90173  1.0000
  Ti  Ti58      1.0  0.51360  0.52490  0.39030  1.0000
  Ti  Ti59      1.0  0.87342  0.08520  0.97375  1.0000
  Ti  Ti60      1.0  0.95898  0.58538  0.41001  1.0000
  Ti  Ti61      1.0  0.65742  0.62346  0.60590  1.0000
  Ti  Ti62      1.0  0.76225  0.53967  0.91100  1.0000
  Ti  Ti63      1.0  0.72145  0.94787  0.17971  1.0000
  Ti  Ti64      1.0  0.41765  0.01420  0.48721  1.0000
  Ti  Ti65      1.0  0.96621  0.80199  0.12417  1.0000
  Ti  Ti66      1.0  0.66045  0.29121  0.91009  1.0000
  Ti  Ti67      1.0  0.81010  0.74434  0.01092  1.0000
  Ti  Ti68      1.0  0.37649  0.57425  0.45924  1.0000
  Ti  Ti69      1.0  0.76968  0.88837  0.75232  1.0000
  Ti  Ti70      1.0  0.78432  0.73528  0.94576  1.0000
  Ti  Ti71      1.0  0.17766  0.07685  0.28624  1.0000
  Ti  Ti72      1.0  0.77300  0.12188  0.74032  1.0000
  Ti  Ti73      1.0  0.77381  0.21384  0.10732  1.0000
  Ti  Ti74      1.0  0.41695  0.33838  0.47728  1.0000
  Ti  Ti75      1.0  0.48426  0.99234  0.08472  1.0000
  Ti  Ti76      1.0  0.22497  0.00084  0.92515  1.0000
  Ti  Ti77      1.0  0.28957  0.29958  0.64280  1.0000
  Ti  Ti78      1.0  0.15191  0.75015  0.79766  1.0000
  Ti  Ti79      1.0  0.71222  0.67228  0.85825  1.0000
  Ti  Ti80      1.0  0.96597  0.28239  0.44933  1.0000
  Ti  Ti81      1.0  0.35817  0.91457  0.24859  1.0000
  Ti  Ti82      1.0  0.20241  0.26305  0.94759  1.0000
  Ti  Ti83      1.0  0.10815  0.35182  0.72325  1.0000
  Ti  Ti84      1.0  0.99260  0.19227  0.86516  1.0000
  Ti  Ti85      1.0  0.22975  0.05833  0.57061  1.0000
  Ti  Ti86      1.0  0.70512  0.23458  0.92137  1.0000
  Ti  Ti87      1.0  0.12532  0.26645  0.23497  1.0000
  Ti  Ti88      1.0  0.61402  0.36047  0.40921  1.0000
  Ti  Ti89      1.0  0.49229  0.29178  0.19223  1.0000
  Ti  Ti90      1.0  0.06702  0.78584  0.28539  1.0000
  Ti  Ti91      1.0  0.28241  0.49574  0.35129  1.0000
  Ti  Ti92      1.0  0.28502  0.78664  0.65317  1.0000
  Ti  Ti93      1.0  0.04009  0.44671  0.04189  1.0000
  Ti  Ti94      1.0  0.92948  0.01755  0.20478  1.0000
  Ti  Ti95      1.0  0.34234  0.73393  0.08561  1.0000
  Ti  Ti96      1.0  0.00455  0.17641  0.16975  1.0000
  I   I1        1.0  0.82683  0.12101  0.80070  1.0000
  I   I2        1.0  0.00488  0.09713  0.15063  1.0000
  I   I3        1.0  0.18117  0.92535  0.10732  1.0000
  I   I4        1.0  0.36540  0.73166  0.50268  1.0000
  I   I5        1.0  0.88983  0.78646  0.38035  1.0000
  I   I6        1.0  0.91878  0.79347  0.81604  1.0000
  I   I7        1.0  0.09778  0.53950  0.41268  1.0000
  I   I8        1.0  0.34034  0.47291  0.15551  1.0000
  I   I9        1.0  0.46276  0.16848  0.92461  1.0000
  I   I10       1.0  0.47514  0.53367  0.68312  1.0000
  I   I11       1.0  0.24660  0.46009  0.00488  1.0000
  I   I12       1.0  0.45137  0.49570  0.23496  1.0000
  I   I13       1.0  0.71172  0.52905  0.94268  1.0000
  I   I14       1.0  0.69505  0.93848  0.22339  1.0000
  I   I15       1.0  0.67822  0.58602  0.67826  1.0000
  I   I16       1.0  0.53386  0.48743  0.73416  1.0000
  I   I17       1.0  0.63089  0.31319  0.95797  1.0000
  I   I18       1.0  0.40685  0.06498  0.56952  1.0000
  I   I19       1.0  0.12078  0.87257  0.45458  1.0000
  I   I20       1.0  0.21430  0.53053  0.94238  1.0000
  I   I21       1.0  0.13252  0.55763  0.34717  1.0000
  I   I22       1.0  0.14873  0.07578  0.10680  1.0000
  I   I23       1.0  0.12345  0.12989  0.14517  1.0000
  I   I24       1.0  0.85455  0.71643  0.00982  1.0000
  I   I25       1.0  0.41973  0.38356  0.36892  1.0000
  I   I26       1.0  0.45527  0.99100  0.13432  1.0000
  I   I27       1.0  0.76048  0.14388  0.22545  1.0000
  I   I28       1.0  0.37342  0.95658  0.69182  1.0000
  I   I29       1.0  0.17235  0.79812  0.92980  1.0000
  I   I30       1.0  0.28391  0.85819  0.84680  1.0000
  I   I31       1.0  0.00755  0.26884  0.43048  1.0000
  I   I32       1.0  0.34184  0.91317  0.17387  1.0000
  I   I33       1.0  0.72717  0.69524  0.82291  1.0000
  I   I34       1.0  0.08581  0.33479  0.68640  1.0000
  I   I35       1.0  0.90509  0.27465  0.90357  1.0000
  I   I36       1.0  0.57504  0.53461  0.74332  1.0000
  I   I37       1.0  0.25944  0.10877  0.51977  1.0000
  I   I38       1.0  0.58587  0.58092  0.30129  1.0000
  I   I39       1.0  0.27498  0.04799  0.56294  1.0000
  I   I40       1.0  0.52664  0.22502  0.68173  1.0000
  I   I41       1.0  0.07919  0.79594  0.20608  1.0000
  I   I42       1.0  0.44111  0.64247  0.69307  1.0000
  I   I43       1.0  0.54710  0.51013  0.43337  1.0000
  I   I44       1.0  0.55893  0.15233  0.68391  1.0000
  I   I45       1.0  0.11754  0.34377  0.18693  1.0000
  I   I46       1.0  0.36942  0.72853  0.13835  1.0000
  I   I47       1.0  0.81303  0.08349  0.75173  1.0000
  I   I48       1.0  0.98973  0.96580  0.31795  1.0000
  I   I49       1.0  0.18474  0.92810  0.21942  1.0000
  I   I50       1.0  0.98265  0.06757  0.19397  1.0000
  I   I51       1.0  0.95731  0.10125  0.10683  1.0000
  I   I52       1.0  0.94143  0.32300  0.43425  1.0000
  I   I53       1.0  0.41635  0.73461  0.55419  1.0000
  I   I54       1.0  0.89782  0.78560  0.70542  1.0000
  I   I55       1.0  0.59393  0.97222  0.57856  1.0000
  I   I56       1.0  0.14979  0.48445  0.41397  1.0000
  I   I57       1.0  0.41595  0.15376  0.89152  1.0000
  I   I58       1.0  0.52380  0.45077  0.84102  1.0000
  I   I59       1.0  0.87628  0.08480  0.04594  1.0000
  I   I60       1.0  0.96368  0.61673  0.44845  1.0000
  I   I61       1.0  0.79654  0.53887  0.87898  1.0000
  I   I62       1.0  0.73823  0.51606  0.03699  1.0000
  I   I63       1.0  0.74086  0.92190  0.12151  1.0000
  I   I64       1.0  0.46276  0.54849  0.78649  1.0000
  I   I65       1.0  0.92496  0.81516  0.11464  1.0000
  I   I66       1.0  0.64080  0.28115  0.86006  1.0000
  I   I67       1.0  0.37854  0.61346  0.38622  1.0000
  I   I68       1.0  0.11723  0.85440  0.32533  1.0000
  I   I69       1.0  0.78067  0.90334  0.81694  1.0000
  I   I70       1.0  0.74668  0.73720  0.93338  1.0000
  I   I71       1.0  0.13424  0.09890  0.26095  1.0000
  I   I72       1.0  0.85031  0.13523  0.71239  1.0000
  I   I73       1.0  0.74627  0.25320  0.09929  1.0000
  I   I74       1.0  0.69230  0.95583  0.81851  1.0000
  I   I75       1.0  0.73814  0.88795  0.79109  1.0000
  I   I76       1.0  0.27574  0.32664  0.58005  1.0000
  I   I77       1.0  0.31469  0.25913  0.64106  1.0000
  I   I78       1.0  0.24466  0.87067  0.20102  1.0000
  I   I79       1.0  0.29284  0.56986  0.81844  1.0000
  I   I80       1.0  0.66125  0.11845  0.19078  1.0000
  I   I81       1.0  0.30922  0.87384  0.25104  1.0000
  I   I82       1.0  0.17751  0.24609  0.91200  1.0000
  I   I83       1.0  0.08650  0.33498  0.58196  1.0000
  I   I84       1.0  0.92156  0.27094  0.78203  1.0000
  I   I85       1.0  0.23508  0.11061  0.63307  1.0000
  I   I86       1.0  0.67030  0.31921  0.88087  1.0000
  I   I87       1.0  0.56869  0.63396  0.33901  1.0000
  I   I88       1.0  0.38789  0.70275  0.69193  1.0000
  I   I89       1.0  0.57181  0.25005  0.67798  1.0000
  I   I90       1.0  0.09018  0.75610  0.33140  1.0000
  I   I91       1.0  0.30220  0.51547  0.32286  1.0000
  I   I92       1.0  0.27485  0.80435  0.72124  1.0000
  I   I93       1.0  0.52536  0.18725  0.77694  1.0000
  I   I94       1.0  0.97641  0.99866  0.23694  1.0000
  I   I95       1.0  0.28941  0.96891  0.52496  1.0000
  I   I96       1.0  0.02716  0.17375  0.22878  1.0000
  I   I97       1.0  0.24622  0.17065  0.34472  1.0000
  I   I98       1.0  0.21903  0.83957  0.27298  1.0000
  I   I99       1.0  0.04168  0.02220  0.11357  1.0000
  I   I100      1.0  0.02691  0.66458  0.71541  1.0000
  I   I101      1.0  0.66301  0.34417  0.27072  1.0000
  I   I102      1.0  0.40497  0.49043  0.30072  1.0000
  I   I103      1.0  0.52595  0.95545  0.59046  1.0000
  I   I104      1.0  0.57361  0.00320  0.47682  1.0000
  I   I105      1.0  0.45047  0.23214  0.96747  1.0000
  I   I106      1.0  0.02656  0.61531  0.35253  1.0000
  I   I107      1.0  0.55082  0.42578  0.72809  1.0000
  I   I108      1.0  0.96339  0.55835  0.46196  1.0000
  I   I109      1.0  0.63179  0.60783  0.75446  1.0000
  I   I110      1.0  0.77731  0.50343  0.93897  1.0000
  I   I111      1.0  0.75069  0.95775  0.20125  1.0000
  I   I112      1.0  0.42950  0.04268  0.46107  1.0000
  I   I113      1.0  0.99249  0.76574  0.08754  1.0000
  I   I114      1.0  0.25705  0.52503  0.72899  1.0000
  I   I115      1.0  0.80397  0.77150  0.06334  1.0000
  I   I116      1.0  0.81547  0.69594  0.96632  1.0000
  I   I117      1.0  0.37765  0.58377  0.27865  1.0000
  I   I118      1.0  0.72049  0.68709  0.47802  1.0000
  I   I119      1.0  0.79799  0.72349  0.87389  1.0000
  I   I120      1.0  0.76024  0.12505  0.80919  1.0000
  I   I121      1.0  0.74961  0.13386  0.11612  1.0000
  I   I122      1.0  0.37515  0.41730  0.44531  1.0000
  I   I123      1.0  0.46944  0.02737  0.04760  1.0000
  I   I124      1.0  0.27914  0.82042  0.93794  1.0000
  I   I125      1.0  0.36751  0.93991  0.81307  1.0000
  I   I126      1.0  0.18229  0.74574  0.95770  1.0000
  I   I127      1.0  0.22479  0.61163  0.91175  1.0000
  I   I128      1.0  0.00313  0.62136  0.73303  1.0000
  I   I129      1.0  0.36942  0.87039  0.23552  1.0000
  I   I130      1.0  0.98326  0.16122  0.89660  1.0000
  I   I131      1.0  0.23882  0.26625  0.94985  1.0000
  I   I132      1.0  0.13347  0.30881  0.72555  1.0000
  I   I133      1.0  0.59027  0.62654  0.22483  1.0000
  I   I134      1.0  0.88715  0.12247  0.40444  1.0000
  I   I135      1.0  0.68002  0.21499  0.91025  1.0000
  I   I136      1.0  0.05281  0.76103  0.25008  1.0000
  I   I137      1.0  0.60906  0.33078  0.36952  1.0000
  I   I138      1.0  0.48201  0.26197  0.18628  1.0000
  I   I139      1.0  0.32183  0.46310  0.36793  1.0000
  I   I140      1.0  0.26161  0.77446  0.60795  1.0000
  I   I141      1.0  0.03407  0.41185  0.03867  1.0000
  I   I142      1.0  0.93569  0.04694  0.17153  1.0000
  I   I143      1.0  0.34433  0.92399  0.54812  1.0000
  I   I144      1.0  0.99243  0.21382  0.13943  1.0000
  I   I145      1.0  0.23494  0.82119  0.18471  1.0000
  I   I146      1.0  0.05992  0.02943  0.02468  1.0000
  I   I147      1.0  0.30002  0.14567  0.42528  1.0000
  I   I148      1.0  0.60812  0.38483  0.24927  1.0000
  I   I149      1.0  0.45719  0.43725  0.26867  1.0000
  I   I150      1.0  0.88045  0.82361  0.48152  1.0000
  I   I151      1.0  0.59740  0.94223  0.45596  1.0000
  I   I152      1.0  0.13126  0.59247  0.44807  1.0000
  I   I153      1.0  0.38371  0.22608  0.89376  1.0000
  I   I154      1.0  0.17200  0.86349  0.64382  1.0000
  I   I155      1.0  0.22707  0.47294  0.90271  1.0000
  I   I156      1.0  0.96221  0.56525  0.34459  1.0000
  I   I157      1.0  0.64094  0.55899  0.70312  1.0000
  I   I158      1.0  0.69658  0.98795  0.16223  1.0000
  I   I159      1.0  0.63394  0.60298  0.59254  1.0000
  I   I160      1.0  0.45602  0.98797  0.49259  1.0000
  I   I161      1.0  0.19158  0.55205  0.75501  1.0000
  I   I162      1.0  0.37291  0.04347  0.47737  1.0000
  I   I163      1.0  0.42288  0.57227  0.32294  1.0000
  I   I164      1.0  0.38019  0.53655  0.44251  1.0000
  I   I165      1.0  0.07873  0.60422  0.41412  1.0000
  I   I166      1.0  0.66873  0.69152  0.42275  1.0000
  I   I167      1.0  0.18033  0.08001  0.19712  1.0000
  I   I168      1.0  0.94105  0.76816  0.61466  1.0000
  I   I169      1.0  0.41988  0.32632  0.40723  1.0000
  I   I170      1.0  0.42134  0.37562  0.49282  1.0000
  I   I171      1.0  0.80842  0.21541  0.13122  1.0000
  I   I172      1.0  0.23830  0.98776  0.85640  1.0000
  I   I173      1.0  0.15063  0.74890  0.88267  1.0000
  I   I174      1.0  0.27141  0.87683  0.97066  1.0000
  I   I175      1.0  0.72718  0.05903  0.20896  1.0000
  I   I176      1.0  0.29850  0.89465  0.13864  1.0000
  I   I177      1.0  0.68281  0.65982  0.87831  1.0000
  I   I178      1.0  0.21330  0.23505  0.99612  1.0000
  I   I179      1.0  0.13759  0.33161  0.63592  1.0000
  I   I180      1.0  0.95308  0.20327  0.82356  1.0000
  I   I181      1.0  0.22918  0.02003  0.56207  1.0000
  I   I182      1.0  0.69663  0.26569  0.86254  1.0000
  I   I183      1.0  0.10406  0.32308  0.08572  1.0000
  I   I184      1.0  0.65603  0.32941  0.36775  1.0000
  I   I185      1.0  0.52651  0.27454  0.15298  1.0000
  I   I186      1.0  0.00999  0.86775  0.27155  1.0000
  I   I187      1.0  0.28413  0.81834  0.61388  1.0000
  I   I188      1.0  0.58416  0.16998  0.77068  1.0000
  I   I189      1.0  0.05660  0.36158  0.16460  1.0000
  I   I190      1.0  0.32092  0.97436  0.44412  1.0000
  I   I191      1.0  0.55600  0.40214  0.99852  1.0000
  I   I192      1.0  0.92243  0.98543  0.29677  1.0000
  I   I193      1.0  0.15095  0.79045  0.83324  1.0000
  I   I194      1.0  0.51695  0.43344  0.09955  1.0000
  I   I195      1.0  0.30607  0.16176  0.30508  1.0000
  I   I196      1.0  0.96769  0.67944  0.68643  1.0000
  I   I197      1.0  0.49166  0.51176  0.42690  1.0000
  I   I198      1.0  0.83764  0.82892  0.42246  1.0000
  I   I199      1.0  0.58758  0.92868  0.56674  1.0000
  I   I200      1.0  0.38324  0.42594  0.05675  1.0000
  I   I201      1.0  0.43766  0.22303  0.85518  1.0000
  I   I202      1.0  0.83268  0.10701  0.95944  1.0000
  I   I203      1.0  0.77803  0.85801  0.70965  1.0000
  I   I204      1.0  0.91828  0.61406  0.39455  1.0000
  I   I205      1.0  0.69974  0.57638  0.01066  1.0000
  I   I206      1.0  0.03568  0.77946  0.77788  1.0000
  I   I207      1.0  0.64941  0.64642  0.54530  1.0000
  I   I208      1.0  0.51030  0.50133  0.81839  1.0000
  I   I209      1.0  0.25195  0.51793  0.83447  1.0000
  I   I210      1.0  0.70744  0.68892  0.92824  1.0000
  I   I211      1.0  0.76587  0.75837  0.00674  1.0000
  I   I212      1.0  0.17584  0.83233  0.39209  1.0000
  I   I213      1.0  0.79779  0.89568  0.71292  1.0000
  I   I214      1.0  0.73007  0.66569  0.37339  1.0000
  I   I215      1.0  0.16970  0.07935  0.36011  1.0000
  I   I216      1.0  0.93760  0.83245  0.54706  1.0000
  I   I217      1.0  0.37066  0.36701  0.46557  1.0000
  I   I218      1.0  0.49855  0.95955  0.03914  1.0000
  I   I219      1.0  0.77900  0.18175  0.16865  1.0000
  I   I220      1.0  0.25819  0.29762  0.67068  1.0000
  I   I221      1.0  0.21533  0.76009  0.86018  1.0000
  I   I222      1.0  0.19235  0.99772  0.94286  1.0000
  I   I223      1.0  0.71830  0.11537  0.25232  1.0000
  I   I224      1.0  0.32790  0.95120  0.28443  1.0000
  I   I225      1.0  0.22869  0.58318  0.82856  1.0000
  I   I226      1.0  0.17052  0.29828  0.96635  1.0000
  I   I227      1.0  0.08798  0.38733  0.57991  1.0000
  I   I228      1.0  0.01633  0.19215  0.80767  1.0000
  I   I229      1.0  0.19629  0.09309  0.59000  1.0000
  I   I230      1.0  0.88471  0.09140  0.50728  1.0000
  I   I231      1.0  0.64608  0.59453  0.28950  1.0000
  I   I232      1.0  0.01155  0.82488  0.87844  1.0000
  I   I233      1.0  0.60057  0.21162  0.60214  1.0000
  I   I234      1.0  0.07937  0.81423  0.30716  1.0000
  I   I235      1.0  0.22735  0.87568  0.62714  1.0000
  I   I236      1.0  0.02894  0.45334  0.11648  1.0000
  I   I237      1.0  0.26417  0.48332  0.29789  1.0000
  I   I238      1.0  0.34222  0.74998  0.01714  1.0000
  I   I239      1.0  0.03650  0.13533  0.13825  1.0000
  I   I240      1.0  0.89214  0.01783  0.19663  1.0000
  I   I241      1.0  0.19928  0.87127  0.12868  1.0000
  I   I242      1.0  0.02180  0.00244  0.00298  1.0000
  I   I243      1.0  0.29274  0.11244  0.33683  1.0000
  I   I244      1.0  0.57749  0.38515  0.36784  1.0000
  I   I245      1.0  0.43011  0.68144  0.50316  1.0000
  I   I246      1.0  0.86409  0.76567  0.46947  1.0000
  I   I247      1.0  0.56234  0.96796  0.66721  1.0000
  I   I248      1.0  0.12822  0.55503  0.50085  1.0000
  I   I249      1.0  0.42112  0.20279  0.98453  1.0000
  I   I250      1.0  0.89559  0.10352  0.93462  1.0000
  I   I251      1.0  0.17781  0.49692  0.96833  1.0000
  I   I252      1.0  0.97154  0.66749  0.36129  1.0000
  I   I253      1.0  0.72781  0.57690  0.91577  1.0000
  I   I254      1.0  0.05924  0.82138  0.80806  1.0000
  I   I255      1.0  0.59582  0.61334  0.68692  1.0000
  I   I256      1.0  0.97534  0.80714  0.19157  1.0000
  I   I257      1.0  0.23396  0.48431  0.75077  1.0000
  I   I258      1.0  0.41524  0.99069  0.43280  1.0000
  I   I259      1.0  0.79993  0.71873  0.06375  1.0000
  I   I260      1.0  0.34935  0.58313  0.38541  1.0000
  I   I261      1.0  0.16649  0.52445  0.42239  1.0000
  I   I262      1.0  0.72819  0.62869  0.44687  1.0000
  I   I263      1.0  0.10570  0.08164  0.17551  1.0000
  I   I264      1.0  0.98360  0.79331  0.61173  1.0000
  I   I265      1.0  0.36809  0.39237  0.36391  1.0000
  I   I266      1.0  0.72705  0.92606  0.89256  1.0000
  I   I267      1.0  0.78715  0.20636  0.03835  1.0000
  I   I268      1.0  0.33322  0.00058  0.75907  1.0000
  I   I269      1.0  0.18762  0.73689  0.76776  1.0000
  I   I270      1.0  0.24944  0.97961  0.98298  1.0000
  I   I271      1.0  0.67103  0.11378  0.29147  1.0000
  I   I272      1.0  0.38913  0.92762  0.23388  1.0000
  I   I273      1.0  0.27417  0.55058  0.90677  1.0000
  I   I274      1.0  0.59579  0.49256  0.82722  1.0000
  I   I275      1.0  0.13485  0.36809  0.71051  1.0000
  I   I276      1.0  0.96936  0.23430  0.84804  1.0000
  I   I277      1.0  0.23077  0.24288  0.88860  1.0000
  I   I278      1.0  0.86965  0.16344  0.49724  1.0000
  I   I279      1.0  0.16436  0.24221  0.25009  1.0000
  I   I280      1.0  0.63132  0.37949  0.35611  1.0000
  I   I281      1.0  0.54043  0.26539  0.59043  1.0000
  I   I282      1.0  0.02548  0.82185  0.19643  1.0000
  I   I283      1.0  0.16539  0.92822  0.65372  1.0000
  I   I284      1.0  0.07752  0.44275  0.04279  1.0000
  I   I285      1.0  0.08961  0.30484  0.22143  1.0000
  I   I286      1.0  0.30791  0.76510  0.11471  1.0000
  I   I287      1.0  0.80417  0.12641  0.68072  1.0000
  I   I288      1.0  0.93857  0.98215  0.16076  1.0000
  I   I289      1.0  0.22549  0.91950  0.13446  1.0000
  I   I290      1.0  0.58550  0.41766  0.07758  1.0000
  I   I291      1.0  0.00201  0.07269  0.02480  1.0000
  I   I292      1.0  0.61594  0.32937  0.25957  1.0000
  I   I293      1.0  0.40280  0.73569  0.41980  1.0000
  I   I294      1.0  0.86832  0.84496  0.74572  1.0000
  I   I295      1.0  0.54682  0.00714  0.56417  1.0000
  I   I296      1.0  0.31507  0.46044  0.05026  1.0000
  I   I297      1.0  0.39361  0.26753  0.95743  1.0000
  I   I298      1.0  0.53253  0.49295  0.34879  1.0000
  I   I299      1.0  0.51492  0.54391  0.73123  1.0000
  I   I300      1.0  0.99711  0.58998  0.37726  1.0000
  I   I301      1.0  0.69655  0.60053  0.58870  1.0000
  I   I302      1.0  0.76480  0.55507  0.98536  1.0000
  I   I303      1.0  0.42310  0.67283  0.80272  1.0000
  I   I304      1.0  0.46410  0.02478  0.59551  1.0000
  I   I305      1.0  0.48849  0.46622  0.74441  1.0000
  I   I306      1.0  0.72839  0.20412  0.96789  1.0000
  I   I307      1.0  0.39710  0.57759  0.51580  1.0000
  I   I308      1.0  0.13282  0.89766  0.35119  1.0000
  I   I309      1.0  0.11992  0.51317  0.31208  1.0000
  I   I310      1.0  0.19901  0.86525  0.72373  1.0000
  I   I311      1.0  0.21518  0.07097  0.27663  1.0000
  I   I312      1.0  0.85462  0.07387  0.69050  1.0000
  I   I313      1.0  0.74261  0.19978  0.10354  1.0000
  I   I314      1.0  0.40896  0.31821  0.53467  1.0000
  I   I315      1.0  0.51113  0.99127  0.13834  1.0000
  I   I316      1.0  0.21655  0.04014  0.93297  1.0000
  I   I317      1.0  0.39303  0.97955  0.79621  1.0000
  I   I318      1.0  0.12976  0.77336  0.74149  1.0000
  I   I319      1.0  0.74551  0.63278  0.85763  1.0000
  I   I320      1.0  0.98014  0.67796  0.80307  1.0000
  I   I321      1.0  0.35078  0.84974  0.14862  1.0000
  I   I322      1.0  0.55139  0.55406  0.84632  1.0000
  I   I323      1.0  0.08112  0.36047  0.77939  1.0000
  I   I324      1.0  0.00595  0.20835  0.92268  1.0000
  I   I325      1.0  0.23576  0.05559  0.64457  1.0000
  I   I326      1.0  0.69746  0.26797  0.96310  1.0000
  I   I327      1.0  0.11397  0.27890  0.30678  1.0000
  I   I328      1.0  0.45350  0.68728  0.69566  1.0000
  I   I329      1.0  0.49603  0.28897  0.27001  1.0000
  I   I330      1.0  0.06907  0.84968  0.22175  1.0000
  I   I331      1.0  0.10060  0.24723  0.24039  1.0000
  I   I332      1.0  0.50174  0.56426  0.39902  1.0000
  I   I333      1.0  0.58701  0.19148  0.68370  1.0000
  I   I334      1.0  0.94857  0.01548  0.37324  1.0000
  I   I335      1.0  0.31276  0.92116  0.44862  1.0000
  I   I336      1.0  0.96841  0.18090  0.19675  1.0000
  I   I337      1.0  0.17079  0.85342  0.20969  1.0000
  I   I338      1.0  0.53866  0.46001  0.01038  1.0000
  I   I339      1.0  0.98621  0.03602  0.08774  1.0000
  I   I340      1.0  0.95234  0.26123  0.41089  1.0000
  I   I341      1.0  0.42155  0.46819  0.17363  1.0000
  I   I342      1.0  0.85575  0.80424  0.81329  1.0000
  I   I343      1.0  0.53949  0.96680  0.48446  1.0000
  I   I344      1.0  0.34876  0.49064  0.04937  1.0000
  I   I345      1.0  0.42595  0.17705  0.82394  1.0000
  I   I346      1.0  0.80132  0.76660  0.94122  1.0000
  I   I347      1.0  0.88990  0.04725  0.95844  1.0000
  I   I348      1.0  0.01893  0.62203  0.45574  1.0000
  I   I349      1.0  0.64435  0.64586  0.67374  1.0000
  I   I350      1.0  0.74196  0.54265  0.84348  1.0000
  I   I351      1.0  0.99800  0.84642  0.76110  1.0000
  I   I352      1.0  0.42050  0.00786  0.57326  1.0000
  I   I353      1.0  0.96850  0.83599  0.09911  1.0000
  I   I354      1.0  0.73283  0.21014  0.86044  1.0000
  I   I355      1.0  0.41662  0.55150  0.41351  1.0000
  I   I356      1.0  0.33896  0.59914  0.49003  1.0000
  I   I357      1.0  0.74348  0.96124  0.83146  1.0000
  I   I358      1.0  0.92887  0.82693  0.66045  1.0000
  I   I359      1.0  0.18049  0.04037  0.26472  1.0000
  I   I360      1.0  0.76206  0.09926  0.70031  1.0000
  I   I361      1.0  0.70474  0.17835  0.17782  1.0000
  I   I362      1.0  0.45743  0.31304  0.48874  1.0000
  I   I363      1.0  0.74327  0.92785  0.74038  1.0000
  I   I364      1.0  0.22550  0.86895  0.91997  1.0000
  I   I365      1.0  0.29701  0.32138  0.69540  1.0000
  I   I366      1.0  0.13832  0.71962  0.79632  1.0000
  I   I367      1.0  0.70723  0.66351  0.78340  1.0000
  I   I368      1.0  0.94797  0.29120  0.51844  1.0000
  I   I369      1.0  0.36347  0.91045  0.32629  1.0000
  I   I370      1.0  0.61899  0.53956  0.80685  1.0000
  I   I371      1.0  0.08282  0.39253  0.68465  1.0000
  I   I372      1.0  0.89851  0.23569  0.81949  1.0000
  I   I373      1.0  0.23273  0.07356  0.50104  1.0000
  I   I374      1.0  0.83082  0.13709  0.43975  1.0000
  I   I375      1.0  0.13537  0.28266  0.16483  1.0000
  I   I376      1.0  0.60292  0.37691  0.47958  1.0000
  I   I377      1.0  0.47346  0.33124  0.18723  1.0000
  I   I378      1.0  0.02805  0.81090  0.30342  1.0000
  I   I379      1.0  0.25093  0.51815  0.40031  1.0000
  I   I380      1.0  0.32322  0.75595  0.64175  1.0000
  I   I381      1.0  0.00547  0.47743  0.01327  1.0000
  I   I382      1.0  0.91948  0.03889  0.27326  1.0000
  I   I383      1.0  0.34365  0.69858  0.06874  1.0000
  I   I384      1.0  0.74496  0.15902  0.72120  1.0000
