data_image0
_chemical_formula_structural       Ti96I384
_chemical_formula_sum              "Ti96 I384"
_cell_length_a       79.663
_cell_length_b       79.2704
_cell_length_c       38.848
_cell_angle_alpha    88.7757
_cell_angle_beta     88.7757
_cell_angle_gamma    62.1586

_space_group_name_H-M_alt    "P 1"
_space_group_IT_number       1

loop_
  _space_group_symop_operation_xyz
  'x, y, z'

loop_
  _atom_site_type_symbol
  _atom_site_label
  _atom_site_symmetry_multiplicity
  _atom_site_fract_x
  _atom_site_fract_y
  _atom_site_fract_z
  _atom_site_occupancy
  Ti  Ti1       1.0  0.57221  0.69190  0.16248  1.0000
  Ti  Ti2       1.0  0.61594  0.93261  0.55386  1.0000
  Ti  Ti3       1.0  0.98388  0.02398  0.31203  1.0000
  Ti  Ti4       1.0  0.44756  0.74553  0.99688  1.0000
  Ti  Ti5       1.0  0.96242  0.75150  0.73786  1.0000
  Ti  Ti6       1.0  0.13942  0.90190  0.46012  1.0000
  Ti  Ti7       1.0  0.36829  0.16432  0.90329  1.0000
  Ti  Ti8       1.0  0.63919  0.34299  0.69155  1.0000
  Ti  Ti9       1.0  0.11724  0.08432  0.63461  1.0000
  Ti  Ti10      1.0  0.88151  0.39249  0.18236  1.0000
  Ti  Ti11      1.0  0.14041  0.90648  0.71005  1.0000
  Ti  Ti12      1.0  0.24316  0.00209  0.15824  1.0000
  Ti  Ti13      1.0  0.50943  0.60952  0.29170  1.0000
  Ti  Ti14      1.0  0.49986  0.73514  0.02920  1.0000
  Ti  Ti15      1.0  0.77155  0.18824  0.19068  1.0000
  Ti  Ti16      1.0  0.87372  0.41485  0.64893  1.0000
  Ti  Ti17      1.0  0.32696  0.13254  0.42637  1.0000
  Ti  Ti18      1.0  0.62207  0.23698  0.55131  1.0000
  Ti  Ti19      1.0  0.12583  0.11332  0.09372  1.0000
  Ti  Ti20      1.0  0.86294  0.56792  0.62072  1.0000
  Ti  Ti21      1.0  0.67347  0.33702  0.77422  1.0000
  Ti  Ti22      1.0  0.53124  0.25708  0.09432  1.0000
  Ti  Ti23      1.0  0.39177  0.28220  0.53417  1.0000
  Ti  Ti24      1.0  0.72640  0.57541  0.34150  1.0000
  Ti  Ti25      1.0  0.87277  0.10148  0.83746  1.0000
  Ti  Ti26      1.0  0.16410  0.81593  0.59887  1.0000
  Ti  Ti27      1.0  0.82088  0.86309  0.60540  1.0000
  Ti  Ti28      1.0  0.35347  0.11255  0.03357  1.0000
  Ti  Ti29      1.0  0.07876  0.67240  0.63644  1.0000
  Ti  Ti30      1.0  0.32745  0.62369  0.68713  1.0000
  Ti  Ti31      1.0  0.86989  0.88606  0.44893  1.0000
  Ti  Ti32      1.0  0.20849  0.13435  0.72870  1.0000
  Ti  Ti33      1.0  0.72096  0.34620  0.14199  1.0000
  Ti  Ti34      1.0  0.73495  0.60858  0.76238  1.0000
  Ti  Ti35      1.0  0.56921  0.19560  0.69683  1.0000
  Ti  Ti36      1.0  0.98962  0.95499  0.88737  1.0000
  Ti  Ti37      1.0  0.41292  0.94498  0.38542  1.0000
  Ti  Ti38      1.0  0.54375  0.58158  0.62840  1.0000
  Ti  Ti39      1.0  0.95789  0.33612  0.21017  1.0000
  Ti  Ti40      1.0  0.59491  0.95939  0.07364  1.0000
  Ti  Ti41      1.0  0.95771  0.22526  0.23861  1.0000
  Ti  Ti42      1.0  0.32560  0.37762  0.06736  1.0000
  Ti  Ti43      1.0  0.42089  0.59073  0.94018  1.0000
  Ti  Ti44      1.0  0.20661  0.44519  0.37048  1.0000
  Ti  Ti45      1.0  0.91945  0.10813  0.46595  1.0000
  Ti  Ti46      1.0  0.71393  0.81968  0.13392  1.0000
  Ti  Ti47      1.0  0.37325  0.43807  0.60770  1.0000
  Ti  Ti48      1.0  0.59819  0.77018  0.31441  1.0000
  Ti  Ti49      1.0  0.71510  0.90925  0.16116  1.0000
  Ti  Ti50      1.0  0.03894  0.23046  0.17151  1.0000
  Ti  Ti51      1.0  0.63343  0.97587  0.59628  1.0000
  Ti  Ti52      1.0  0.25550  0.59834  0.25617  1.0000
  Ti  Ti53      1.0  0.69175  0.13030  0.19564  1.0000
  Ti  Ti54      1.0  0.74619  0.93838  0.87451  1.0000
  Ti  Ti55      1.0  0.82404  0.66212  0.27696  1.0000
  Ti  Ti56      1.0  0.76977  0.93988  0.42432  1.0000
  Ti  Ti57      1.0  0.07140  0.12168  0.64239  1.0000
  Ti  Ti58      1.0  0.90226  0.98094  0.38407  1.0000
  Ti  Ti59      1.0  0.88476  0.41624  0.73033  1.0000
  Ti  Ti60      1.0  0.03309  0.18240  0.94089  1.0000
  Ti  Ti61      1.0  0.54532  0.11839  0.38294  1.0000
  Ti  Ti62      1.0  0.54383  0.59964  0.36922  1.0000
  Ti  Ti63      1.0  0.03181  0.79852  0.79070  1.0000
  Ti  Ti64      1.0  0.61264  0.20689  0.56498  1.0000
  Ti  Ti65      1.0  0.00465  0.32136  0.87101  1.0000
  Ti  Ti66      1.0  0.24194  0.92637  0.35756  1.0000
  Ti  Ti67      1.0  0.43822  0.74993  0.80022  1.0000
  Ti  Ti68      1.0  0.88217  0.74606  0.49451  1.0000
  Ti  Ti69      1.0  0.20173  0.82126  0.54478  1.0000
  Ti  Ti70      1.0  0.24289  0.67763  0.00278  1.0000
  Ti  Ti71      1.0  0.69465  0.49579  0.14730  1.0000
  Ti  Ti72      1.0  0.36528  0.40840  0.67602  1.0000
  Ti  Ti73      1.0  0.45428  0.57826  0.46765  1.0000
  Ti  Ti74      1.0  0.87748  0.08873  0.92382  1.0000
  Ti  Ti75      1.0  0.70906  0.89900  0.24396  1.0000
  Ti  Ti76      1.0  0.33179  0.87774  0.70595  1.0000
  Ti  Ti77      1.0  0.82630  0.15586  0.24083  1.0000
  Ti  Ti78      1.0  0.11261  0.62124  0.60436  1.0000
  Ti  Ti79      1.0  0.70385  0.10356  0.63260  1.0000
  Ti  Ti80      1.0  0.02363  0.58033  0.20211  1.0000
  Ti  Ti81      1.0  0.44163  0.26671  0.46117  1.0000
  Ti  Ti82      1.0  0.65036  0.57921  0.95032  1.0000
  Ti  Ti83      1.0  0.88309  0.16749  0.49835  1.0000
  Ti  Ti84      1.0  0.00115  0.93507  0.96384  1.0000
  Ti  Ti85      1.0  0.43938  0.92951  0.32501  1.0000
  Ti  Ti86      1.0  0.34592  0.16121  0.81062  1.0000
  Ti  Ti87      1.0  0.56665  0.78699  0.69099  1.0000
  Ti  Ti88      1.0  0.72461  0.25860  0.86627  1.0000
  Ti  Ti89      1.0  0.88858  0.23329  0.94762  1.0000
  Ti  Ti90      1.0  0.36664  0.10188  0.49275  1.0000
  Ti  Ti91      1.0  0.50728  0.40186  0.13585  1.0000
  Ti  Ti92      1.0  0.58137  0.62060  0.00413  1.0000
  Ti  Ti93      1.0  0.32598  0.92584  0.87604  1.0000
  Ti  Ti94      1.0  0.62838  0.77738  0.26232  1.0000
  Ti  Ti95      1.0  0.20864  0.88726  0.16366  1.0000
  Ti  Ti96      1.0  0.16752  0.17784  0.98310  1.0000
  I   I1        1.0  0.33789  0.47160  0.60146  1.0000
  I   I2        1.0  0.62815  0.01194  0.59802  1.0000
  I   I3        1.0  0.67479  0.92547  0.18635  1.0000
  I   I4        1.0  0.67847  0.11063  0.24019  1.0000
  I   I5        1.0  0.11991  0.92960  0.41759  1.0000
  I   I6        1.0  0.75072  0.96030  0.91906  1.0000
  I   I7        1.0  0.66279  0.34125  0.84153  1.0000
  I   I8        1.0  0.77710  0.95733  0.37701  1.0000
  I   I9        1.0  0.11845  0.05179  0.62821  1.0000
  I   I10       1.0  0.57669  0.95696  0.01608  1.0000
  I   I11       1.0  0.16317  0.91796  0.73268  1.0000
  I   I12       1.0  0.92792  0.76128  0.73380  1.0000
  I   I13       1.0  0.55729  0.58982  0.29785  1.0000
  I   I14       1.0  0.03040  0.80122  0.85890  1.0000
  I   I15       1.0  0.76741  0.17216  0.13255  1.0000
  I   I16       1.0  0.62037  0.93219  0.11041  1.0000
  I   I17       1.0  0.26188  0.88944  0.37345  1.0000
  I   I18       1.0  0.62445  0.17505  0.60290  1.0000
  I   I19       1.0  0.02867  0.82844  0.75828  1.0000
  I   I20       1.0  0.11993  0.93893  0.75494  1.0000
  I   I21       1.0  0.61893  0.37108  0.65149  1.0000
  I   I22       1.0  0.42704  0.24473  0.46685  1.0000
  I   I23       1.0  0.73823  0.26914  0.91805  1.0000
  I   I24       1.0  0.23036  0.67661  0.06500  1.0000
  I   I25       1.0  0.88096  0.07803  0.77899  1.0000
  I   I26       1.0  0.73181  0.87688  0.19278  1.0000
  I   I27       1.0  0.57138  0.20462  0.76209  1.0000
  I   I28       1.0  0.34136  0.14922  0.02982  1.0000
  I   I29       1.0  0.09353  0.60144  0.58680  1.0000
  I   I30       1.0  0.29696  0.65005  0.71632  1.0000
  I   I31       1.0  0.04965  0.54826  0.16133  1.0000
  I   I32       1.0  0.43823  0.27806  0.53107  1.0000
  I   I33       1.0  0.68226  0.11966  0.68856  1.0000
  I   I34       1.0  0.60233  0.16903  0.68337  1.0000
  I   I35       1.0  0.99144  0.90579  0.97786  1.0000
  I   I36       1.0  0.73004  0.58220  0.72581  1.0000
  I   I37       1.0  0.41189  0.93882  0.45196  1.0000
  I   I38       1.0  0.89207  0.39533  0.11839  1.0000
  I   I39       1.0  0.45448  0.92318  0.39802  1.0000
  I   I40       1.0  0.18537  0.43184  0.39481  1.0000
  I   I41       1.0  0.01232  0.22190  0.15032  1.0000
  I   I42       1.0  0.57238  0.98079  0.12028  1.0000
  I   I43       1.0  0.91656  0.99425  0.43159  1.0000
  I   I44       1.0  0.92495  0.07438  0.49860  1.0000
  I   I45       1.0  0.87884  0.16815  0.56865  1.0000
  I   I46       1.0  0.18046  0.88930  0.13158  1.0000
  I   I47       1.0  0.39015  0.46051  0.58990  1.0000
  I   I48       1.0  0.62890  0.74218  0.27621  1.0000
  I   I49       1.0  0.74522  0.90603  0.13153  1.0000
  I   I50       1.0  0.64074  0.93664  0.60102  1.0000
  I   I51       1.0  0.58811  0.94028  0.51400  1.0000
  I   I52       1.0  0.02762  0.58723  0.26542  1.0000
  I   I53       1.0  0.71003  0.14928  0.20253  1.0000
  I   I54       1.0  0.72293  0.93169  0.91596  1.0000
  I   I55       1.0  0.34289  0.15025  0.88153  1.0000
  I   I56       1.0  0.67716  0.30680  0.73266  1.0000
  I   I57       1.0  0.20137  0.90255  0.22601  1.0000
  I   I58       1.0  0.95822  0.36754  0.16982  1.0000
  I   I59       1.0  0.90464  0.42026  0.66508  1.0000
  I   I60       1.0  0.03289  0.19683  0.00268  1.0000
  I   I61       1.0  0.55528  0.58283  0.43392  1.0000
  I   I62       1.0  0.47452  0.61288  0.31019  1.0000
  I   I63       1.0  0.82831  0.60165  0.63047  1.0000
  I   I64       1.0  0.86468  0.41332  0.78618  1.0000
  I   I65       1.0  0.60909  0.98095  0.04872  1.0000
  I   I66       1.0  0.34339  0.10512  0.97228  1.0000
  I   I67       1.0  0.09982  0.11878  0.05041  1.0000
  I   I68       1.0  0.84832  0.55278  0.66711  1.0000
  I   I69       1.0  0.16088  0.78608  0.62307  1.0000
  I   I70       1.0  0.27950  0.66641  0.01225  1.0000
  I   I71       1.0  0.41203  0.24572  0.54926  1.0000
  I   I72       1.0  0.38567  0.37617  0.70460  1.0000
  I   I73       1.0  0.81236  0.88886  0.55164  1.0000
  I   I74       1.0  0.16421  0.84098  0.55001  1.0000
  I   I75       1.0  0.23498  0.79384  0.56934  1.0000
  I   I76       1.0  0.83324  0.14992  0.30983  1.0000
  I   I77       1.0  0.81111  0.17304  0.17846  1.0000
  I   I78       1.0  0.87414  0.90714  0.49592  1.0000
  I   I79       1.0  0.72103  0.37342  0.09370  1.0000
  I   I80       1.0  0.59340  0.69332  0.11660  1.0000
  I   I81       1.0  0.21191  0.15911  0.77385  1.0000
  I   I82       1.0  0.64038  0.55794  0.91673  1.0000
  I   I83       1.0  0.88444  0.19790  0.49582  1.0000
  I   I84       1.0  0.01647  0.95547  0.93530  1.0000
  I   I85       1.0  0.41120  0.91787  0.34181  1.0000
  I   I86       1.0  0.33524  0.10888  0.08194  1.0000
  I   I87       1.0  0.94743  0.33778  0.27323  1.0000
  I   I88       1.0  0.90990  0.35782  0.19500  1.0000
  I   I89       1.0  0.71950  0.63732  0.72029  1.0000
  I   I90       1.0  0.06922  0.19468  0.18003  1.0000
  I   I91       1.0  0.53777  0.37200  0.16231  1.0000
  I   I92       1.0  0.57095  0.59200  0.98917  1.0000
  I   I93       1.0  0.24092  0.41393  0.36720  1.0000
  I   I94       1.0  0.63246  0.78211  0.33164  1.0000
  I   I95       1.0  0.71737  0.79770  0.19504  1.0000
  I   I96       1.0  0.56298  0.24282  0.05490  1.0000
  I   I97       1.0  0.01323  0.99160  0.33050  1.0000
  I   I98       1.0  0.56972  0.66034  0.14868  1.0000
  I   I99       1.0  0.64409  0.92407  0.51144  1.0000
  I   I100      1.0  0.52474  0.74013  0.98992  1.0000
  I   I101      1.0  0.70769  0.26711  0.80433  1.0000
  I   I102      1.0  0.97798  0.72452  0.68747  1.0000
  I   I103      1.0  0.33320  0.18229  0.74918  1.0000
  I   I104      1.0  0.84819  0.67686  0.28236  1.0000
  I   I105      1.0  0.06463  0.15923  0.63469  1.0000
  I   I106      1.0  0.27481  0.97537  0.18823  1.0000
  I   I107      1.0  0.84522  0.40022  0.18919  1.0000
  I   I108      1.0  0.20982  0.00677  0.19582  1.0000
  I   I109      1.0  0.76233  0.22231  0.16398  1.0000
  I   I110      1.0  0.52736  0.57873  0.34485  1.0000
  I   I111      1.0  0.87622  0.53767  0.58123  1.0000
  I   I112      1.0  0.64730  0.21464  0.60534  1.0000
  I   I113      1.0  0.99679  0.30145  0.91412  1.0000
  I   I114      1.0  0.32824  0.13149  0.35391  1.0000
  I   I115      1.0  0.41717  0.76169  0.74031  1.0000
  I   I116      1.0  0.42926  0.77629  0.84173  1.0000
  I   I117      1.0  0.86546  0.73055  0.45387  1.0000
  I   I118      1.0  0.13251  0.19261  0.96671  1.0000
  I   I119      1.0  0.44188  0.72166  0.83755  1.0000
  I   I120      1.0  0.38955  0.42341  0.54740  1.0000
  I   I121      1.0  0.42163  0.58101  0.44012  1.0000
  I   I122      1.0  0.84823  0.13033  0.80163  1.0000
  I   I123      1.0  0.73506  0.90607  0.26777  1.0000
  I   I124      1.0  0.36095  0.61460  0.71639  1.0000
  I   I125      1.0  0.36499  0.86487  0.73892  1.0000
  I   I126      1.0  0.12836  0.62104  0.54592  1.0000
  I   I127      1.0  0.72025  0.31554  0.11861  1.0000
  I   I128      1.0  0.49200  0.74736  0.09060  1.0000
  I   I129      1.0  0.39895  0.30403  0.49303  1.0000
  I   I130      1.0  0.96662  0.94014  0.91624  1.0000
  I   I131      1.0  0.62641  0.61311  0.92905  1.0000
  I   I132      1.0  0.53632  0.19213  0.68056  1.0000
  I   I133      1.0  0.99236  0.32075  0.22450  1.0000
  I   I134      1.0  0.56639  0.58240  0.67076  1.0000
  I   I135      1.0  0.22192  0.95793  0.39261  1.0000
  I   I136      1.0  0.36069  0.36992  0.04604  1.0000
  I   I137      1.0  0.24550  0.62895  0.28690  1.0000
  I   I138      1.0  0.87810  0.25343  0.88846  1.0000
  I   I139      1.0  0.49764  0.38182  0.09816  1.0000
  I   I140      1.0  0.56053  0.64058  0.94554  1.0000
  I   I141      1.0  0.35460  0.92395  0.91102  1.0000
  I   I142      1.0  0.65392  0.78319  0.23171  1.0000
  I   I143      1.0  0.95744  0.03487  0.36527  1.0000
  I   I144      1.0  0.50303  0.26388  0.05657  1.0000
  I   I145      1.0  0.57337  0.68681  0.23140  1.0000
  I   I146      1.0  0.59144  0.94636  0.61093  1.0000
  I   I147      1.0  0.00134  0.02893  0.25213  1.0000
  I   I148      1.0  0.23939  0.60911  0.19376  1.0000
  I   I149      1.0  0.97087  0.74693  0.80326  1.0000
  I   I150      1.0  0.13065  0.87398  0.44966  1.0000
  I   I151      1.0  0.79319  0.69439  0.29198  1.0000
  I   I152      1.0  0.62888  0.32099  0.64895  1.0000
  I   I153      1.0  0.15204  0.07101  0.64254  1.0000
  I   I154      1.0  0.42772  0.60827  0.88936  1.0000
  I   I155      1.0  0.15512  0.87660  0.75294  1.0000
  I   I156      1.0  0.06577  0.17622  0.91640  1.0000
  I   I157      1.0  0.84885  0.17008  0.24371  1.0000
  I   I158      1.0  0.99578  0.80302  0.77831  1.0000
  I   I159      1.0  0.51966  0.14227  0.42254  1.0000
  I   I160      1.0  0.59121  0.20983  0.51398  1.0000
  I   I161      1.0  0.34676  0.09619  0.43998  1.0000
  I   I162      1.0  0.61517  0.24429  0.48657  1.0000
  I   I163      1.0  0.10706  0.12201  0.14803  1.0000
  I   I164      1.0  0.74656  0.82051  0.12972  1.0000
  I   I165      1.0  0.70815  0.32502  0.79866  1.0000
  I   I166      1.0  0.17998  0.20068  0.94634  1.0000
  I   I167      1.0  0.47712  0.26138  0.44835  1.0000
  I   I168      1.0  0.75461  0.54975  0.36805  1.0000
  I   I169      1.0  0.88438  0.06410  0.97610  1.0000
  I   I170      1.0  0.86521  0.12496  0.88782  1.0000
  I   I171      1.0  0.84504  0.82782  0.59401  1.0000
  I   I172      1.0  0.32717  0.84962  0.67845  1.0000
  I   I173      1.0  0.08250  0.63370  0.65040  1.0000
  I   I174      1.0  0.31934  0.59392  0.69229  1.0000
  I   I175      1.0  0.86021  0.90078  0.38652  1.0000
  I   I176      1.0  0.23745  0.13059  0.69170  1.0000
  I   I177      1.0  0.67762  0.13190  0.58674  1.0000
  I   I178      1.0  0.67308  0.59478  0.97831  1.0000
  I   I179      1.0  0.90039  0.09461  0.42606  1.0000
  I   I180      1.0  0.02334  0.92164  0.01620  1.0000
  I   I181      1.0  0.47571  0.91991  0.30028  1.0000
  I   I182      1.0  0.34095  0.17659  0.95880  1.0000
  I   I183      1.0  0.55154  0.82278  0.71509  1.0000
  I   I184      1.0  0.74943  0.22208  0.85495  1.0000
  I   I185      1.0  0.92303  0.22544  0.94758  1.0000
  I   I186      1.0  0.32315  0.34238  0.07987  1.0000
  I   I187      1.0  0.55372  0.63302  0.04331  1.0000
  I   I188      1.0  0.19214  0.46699  0.31640  1.0000
  I   I189      1.0  0.57622  0.80395  0.64219  1.0000
  I   I190      1.0  0.69959  0.85054  0.10387  1.0000
  I   I191      1.0  0.31262  0.12324  0.49124  1.0000
  I   I192      1.0  0.99554  0.05021  0.31893  1.0000
  I   I193      1.0  0.11714  0.65496  0.62282  1.0000
  I   I194      1.0  0.89600  0.55412  0.65077  1.0000
  I   I195      1.0  0.96141  0.01356  0.28971  1.0000
  I   I196      1.0  0.41729  0.75955  0.04400  1.0000
  I   I197      1.0  0.87049  0.98237  0.40977  1.0000
  I   I198      1.0  0.17409  0.88834  0.43059  1.0000
  I   I199      1.0  0.21055  0.12091  0.79082  1.0000
  I   I200      1.0  0.73957  0.94230  0.39960  1.0000
  I   I201      1.0  0.05160  0.12148  0.69714  1.0000
  I   I202      1.0  0.85719  0.44069  0.59388  1.0000
  I   I203      1.0  0.19078  0.81007  0.63858  1.0000
  I   I204      1.0  0.25583  0.99608  0.09593  1.0000
  I   I205      1.0  0.53935  0.62567  0.41472  1.0000
  I   I206      1.0  0.45148  0.71323  0.03652  1.0000
  I   I207      1.0  0.73709  0.18983  0.19931  1.0000
  I   I208      1.0  0.87707  0.39017  0.60349  1.0000
  I   I209      1.0  0.35831  0.08842  0.54793  1.0000
  I   I210      1.0  0.72212  0.06551  0.64900  1.0000
  I   I211      1.0  0.21742  0.71401  0.98675  1.0000
  I   I212      1.0  0.05900  0.76668  0.80102  1.0000
  I   I213      1.0  0.20810  0.85296  0.53616  1.0000
  I   I214      1.0  0.53755  0.28672  0.10995  1.0000
  I   I215      1.0  0.38954  0.30312  0.59438  1.0000
  I   I216      1.0  0.33269  0.94227  0.82541  1.0000
  I   I217      1.0  0.90291  0.10597  0.81417  1.0000
  I   I218      1.0  0.71740  0.86540  0.27174  1.0000
  I   I219      1.0  0.48645  0.56872  0.43217  1.0000
  I   I220      1.0  0.84966  0.12208  0.21947  1.0000
  I   I221      1.0  0.07100  0.69037  0.56871  1.0000
  I   I222      1.0  0.31241  0.89802  0.75497  1.0000
  I   I223      1.0  0.89841  0.85438  0.42180  1.0000
  I   I224      1.0  0.19689  0.11215  0.70048  1.0000
  I   I225      1.0  0.75286  0.33401  0.16450  1.0000
  I   I226      1.0  0.66702  0.55960  0.00647  1.0000
  I   I227      1.0  0.56977  0.22518  0.66646  1.0000
  I   I228      1.0  0.01886  0.91748  0.88431  1.0000
  I   I229      1.0  0.91345  0.98479  0.32290  1.0000
  I   I230      1.0  0.52147  0.57822  0.68175  1.0000
  I   I231      1.0  0.88757  0.41386  0.22477  1.0000
  I   I232      1.0  0.51549  0.69816  0.05166  1.0000
  I   I233      1.0  0.93856  0.24121  0.29314  1.0000
  I   I234      1.0  0.29504  0.16673  0.43177  1.0000
  I   I235      1.0  0.44304  0.55468  0.93874  1.0000
  I   I236      1.0  0.29434  0.95230  0.89463  1.0000
  I   I237      1.0  0.50410  0.42611  0.08565  1.0000
  I   I238      1.0  0.22456  0.85101  0.16060  1.0000
  I   I239      1.0  0.17270  0.15553  0.92802  1.0000
  I   I240      1.0  0.56434  0.77521  0.30235  1.0000
  I   I241      1.0  0.54060  0.71597  0.14040  1.0000
  I   I242      1.0  0.60486  0.97907  0.55455  1.0000
  I   I243      1.0  0.91685  0.73493  0.47586  1.0000
  I   I244      1.0  0.70151  0.25615  0.90788  1.0000
  I   I245      1.0  0.68929  0.11079  0.14149  1.0000
  I   I246      1.0  0.14020  0.92450  0.51178  1.0000
  I   I247      1.0  0.39360  0.13586  0.93568  1.0000
  I   I248      1.0  0.67509  0.34722  0.69381  1.0000
  I   I249      1.0  0.10037  0.10398  0.69888  1.0000
  I   I250      1.0  0.86789  0.45495  0.71468  1.0000
  I   I251      1.0  0.15213  0.90391  0.64441  1.0000
  I   I252      1.0  0.99720  0.20295  0.93033  1.0000
  I   I253      1.0  0.51269  0.63472  0.34573  1.0000
  I   I254      1.0  0.48642  0.72154  0.97090  1.0000
  I   I255      1.0  0.53794  0.08809  0.36813  1.0000
  I   I256      1.0  0.98757  0.31645  0.81520  1.0000
  I   I257      1.0  0.42446  0.93986  0.25589  1.0000
  I   I258      1.0  0.60077  0.23875  0.60374  1.0000
  I   I259      1.0  0.46933  0.74710  0.76953  1.0000
  I   I260      1.0  0.71331  0.79829  0.08433  1.0000
  I   I261      1.0  0.65359  0.37461  0.77237  1.0000
  I   I262      1.0  0.52847  0.24516  0.15833  1.0000
  I   I263      1.0  0.71331  0.46493  0.18337  1.0000
  I   I264      1.0  0.98616  0.97742  0.83342  1.0000
  I   I265      1.0  0.90738  0.09319  0.92978  1.0000
  I   I266      1.0  0.13547  0.84494  0.62412  1.0000
  I   I267      1.0  0.45999  0.55725  0.52487  1.0000
  I   I268      1.0  0.25641  0.93325  0.29947  1.0000
  I   I269      1.0  0.14406  0.59517  0.63067  1.0000
  I   I270      1.0  0.38697  0.10845  0.05571  1.0000
  I   I271      1.0  0.84286  0.87438  0.45492  1.0000
  I   I272      1.0  0.42636  0.28354  0.40736  1.0000
  I   I273      1.0  0.69092  0.36797  0.18165  1.0000
  I   I274      1.0  0.93469  0.21752  0.20795  1.0000
  I   I275      1.0  0.84181  0.86573  0.65044  1.0000
  I   I276      1.0  0.97212  0.95718  0.00480  1.0000
  I   I277      1.0  0.61578  0.58707  0.99237  1.0000
  I   I278      1.0  0.51711  0.58598  0.58503  1.0000
  I   I279      1.0  0.21413  0.46835  0.40317  1.0000
  I   I280      1.0  0.28948  0.58378  0.23584  1.0000
  I   I281      1.0  0.98866  0.23010  0.21737  1.0000
  I   I282      1.0  0.29641  0.39774  0.02499  1.0000
  I   I283      1.0  0.41848  0.61402  0.99536  1.0000
  I   I284      1.0  0.71895  0.61107  0.35646  1.0000
  I   I285      1.0  0.58384  0.77134  0.75304  1.0000
  I   I286      1.0  0.22105  0.90364  0.11942  1.0000
  I   I287      1.0  0.33730  0.39360  0.68437  1.0000
  I   I288      1.0  0.59177  0.80457  0.28419  1.0000
  I   I289      1.0  0.38538  0.60628  0.92537  1.0000
  I   I290      1.0  0.38747  0.11679  0.51097  1.0000
  I   I291      1.0  0.62429  0.97968  0.66330  1.0000
  I   I292      1.0  0.24950  0.57508  0.29396  1.0000
  I   I293      1.0  0.65108  0.15581  0.19627  1.0000
  I   I294      1.0  0.78171  0.91547  0.87793  1.0000
  I   I295      1.0  0.37258  0.17098  0.82974  1.0000
  I   I296      1.0  0.79313  0.90517  0.39252  1.0000
  I   I297      1.0  0.07226  0.09381  0.60948  1.0000
  I   I298      1.0  0.92122  0.94404  0.40103  1.0000
  I   I299      1.0  0.83806  0.42186  0.66566  1.0000
  I   I300      1.0  0.32517  0.89321  0.91187  1.0000
  I   I301      1.0  0.57210  0.12391  0.40919  1.0000
  I   I302      1.0  0.50163  0.63867  0.25303  1.0000
  I   I303      1.0  0.03768  0.29823  0.85023  1.0000
  I   I304      1.0  0.62423  0.26807  0.56034  1.0000
  I   I305      1.0  0.88712  0.38775  0.70155  1.0000
  I   I306      1.0  0.36720  0.19514  0.92001  1.0000
  I   I307      1.0  0.24005  0.03768  0.16793  1.0000
  I   I308      1.0  0.04586  0.24451  0.11465  1.0000
  I   I309      1.0  0.61212  0.36096  0.73741  1.0000
  I   I310      1.0  0.70139  0.94725  0.16442  1.0000
  I   I311      1.0  0.68090  0.52770  0.17408  1.0000
  I   I312      1.0  0.35245  0.41553  0.61164  1.0000
  I   I313      1.0  0.45002  0.61234  0.48272  1.0000
  I   I314      1.0  0.87203  0.06734  0.88380  1.0000
  I   I315      1.0  0.67917  0.92301  0.28680  1.0000
  I   I316      1.0  0.34053  0.89795  0.66740  1.0000
  I   I317      1.0  0.21474  0.92296  0.33306  1.0000
  I   I318      1.0  0.04653  0.67420  0.62211  1.0000
  I   I319      1.0  0.72171  0.11861  0.66934  1.0000
  I   I320      1.0  0.42670  0.76519  0.94236  1.0000
  I   I321      1.0  0.83774  0.62756  0.31324  1.0000
  I   I322      1.0  0.70680  0.62282  0.80864  1.0000
  I   I323      1.0  0.95040  0.08775  0.43312  1.0000
  I   I324      1.0  0.95686  0.98465  0.91204  1.0000
  I   I325      1.0  0.43304  0.96546  0.34506  1.0000
  I   I326      1.0  0.37246  0.13560  0.76814  1.0000
  I   I327      1.0  0.91900  0.13111  0.51755  1.0000
  I   I328      1.0  0.95659  0.31183  0.16936  1.0000
  I   I329      1.0  0.89676  0.19735  0.91466  1.0000
  I   I330      1.0  0.35008  0.14452  0.44910  1.0000
  I   I331      1.0  0.54153  0.77791  0.67394  1.0000
  I   I332      1.0  0.39217  0.06453  0.46651  1.0000
  I   I333      1.0  0.77110  0.58550  0.78656  1.0000
  I   I334      1.0  0.61130  0.77802  0.20324  1.0000
  I   I335      1.0  0.85542  0.77910  0.50255  1.0000
  I   I336      1.0  0.16179  0.16950  0.04686  1.0000
  I   I337      1.0  0.70515  0.89824  0.10697  1.0000
  I   I338      1.0  0.03490  0.25623  0.21354  1.0000
  I   I339      1.0  0.65615  0.96645  0.54128  1.0000
  I   I340      1.0  0.00331  0.60821  0.16187  1.0000
  I   I341      1.0  0.97525  0.77586  0.72354  1.0000
  I   I342      1.0  0.73068  0.96530  0.82419  1.0000
  I   I343      1.0  0.81087  0.67239  0.21944  1.0000
  I   I344      1.0  0.76310  0.95389  0.48755  1.0000
  I   I345      1.0  0.10787  0.11375  0.59164  1.0000
  I   I346      1.0  0.23748  0.66066  0.95237  1.0000
  I   I347      1.0  0.90973  0.41286  0.78137  1.0000
  I   I348      1.0  0.03936  0.14524  0.94476  1.0000
  I   I349      1.0  0.54376  0.13363  0.32335  1.0000
  I   I350      1.0  0.50738  0.58963  0.24149  1.0000
  I   I351      1.0  0.46385  0.76849  0.99928  1.0000
  I   I352      1.0  0.64059  0.19055  0.51957  1.0000
  I   I353      1.0  0.97958  0.35763  0.88754  1.0000
  I   I354      1.0  0.32255  0.14340  0.78843  1.0000
  I   I355      1.0  0.13892  0.13426  0.06812  1.0000
  I   I356      1.0  0.87787  0.73623  0.55423  1.0000
  I   I357      1.0  0.19825  0.81848  0.47427  1.0000
  I   I358      1.0  0.72658  0.56696  0.27991  1.0000
  I   I359      1.0  0.66705  0.48759  0.13693  1.0000
  I   I360      1.0  0.33555  0.42779  0.71770  1.0000
  I   I361      1.0  0.79768  0.86109  0.66126  1.0000
  I   I362      1.0  0.85098  0.11824  0.96862  1.0000
  I   I363      1.0  0.19193  0.78700  0.54573  1.0000
  I   I364      1.0  0.31447  0.64129  0.63239  1.0000
  I   I365      1.0  0.78150  0.16623  0.24560  1.0000
  I   I366      1.0  0.06454  0.68695  0.69850  1.0000
  I   I367      1.0  0.71831  0.10681  0.56799  1.0000
  I   I368      1.0  0.00394  0.56299  0.21365  1.0000
  I   I369      1.0  0.35492  0.29696  0.54369  1.0000
  I   I370      1.0  0.98163  0.18875  0.25615  1.0000
  I   I371      1.0  0.84674  0.18000  0.49597  1.0000
  I   I372      1.0  0.69867  0.57502  0.37234  1.0000
  I   I373      1.0  0.38181  0.96915  0.36409  1.0000
  I   I374      1.0  0.56225  0.55947  0.57735  1.0000
  I   I375      1.0  0.89555  0.14302  0.43547  1.0000
  I   I376      1.0  0.71018  0.49381  0.08630  1.0000
  I   I377      1.0  0.87580  0.24906  0.00808  1.0000
  I   I378      1.0  0.31307  0.39746  0.11780  1.0000
  I   I379      1.0  0.49438  0.42808  0.18405  1.0000
  I   I380      1.0  0.60277  0.63387  0.03189  1.0000
  I   I381      1.0  0.15871  0.08329  0.10044  1.0000
  I   I382      1.0  0.60179  0.76476  0.38021  1.0000
  I   I383      1.0  0.11050  0.90834  0.67679  1.0000
  I   I384      1.0  0.39063  0.42548  0.67574  1.0000
