data_image0
_chemical_formula_structural       Ti96I384
_chemical_formula_sum              "Ti96 I384"
_cell_length_a       49.948
_cell_length_b       49.6489
_cell_length_c       24.2386
_cell_angle_alpha    88.7757
_cell_angle_beta     88.7757
_cell_angle_gamma    62.1586

_space_group_name_H-M_alt    "P 1"
_space_group_IT_number       1

loop_
  _space_group_symop_operation_xyz
  'x, y, z'

loop_
  _atom_site_type_symbol
  _atom_site_label
  _atom_site_symmetry_multiplicity
  _atom_site_fract_x
  _atom_site_fract_y
  _atom_site_fract_z
  _atom_site_occupancy
  Ti  Ti1       1.0  0.37843  0.96227  0.41365  1.0000
  Ti  Ti2       1.0  0.17052  0.99888  0.95483  1.0000
  Ti  Ti3       1.0  0.30614  0.90618  0.13130  1.0000
  Ti  Ti4       1.0  0.18037  0.11078  0.44871  1.0000
  Ti  Ti5       1.0  0.06432  0.41079  0.85324  1.0000
  Ti  Ti6       1.0  0.18387  0.21221  0.00083  1.0000
  Ti  Ti7       1.0  0.90841  0.72091  0.00410  1.0000
  Ti  Ti8       1.0  0.93396  0.95679  0.62466  1.0000
  Ti  Ti9       1.0  0.86777  0.86166  0.13647  1.0000
  Ti  Ti10      1.0  0.09489  0.85375  0.08230  1.0000
  Ti  Ti11      1.0  0.12390  0.75370  0.69255  1.0000
  Ti  Ti12      1.0  0.97754  0.77338  0.59887  1.0000
  Ti  Ti13      1.0  0.37499  0.15599  0.40446  1.0000
  Ti  Ti14      1.0  0.33612  0.03651  0.79455  1.0000
  Ti  Ti15      1.0  0.33813  0.08096  0.12196  1.0000
  Ti  Ti16      1.0  0.26938  0.64088  0.92167  1.0000
  Ti  Ti17      1.0  0.18905  0.66482  0.19596  1.0000
  Ti  Ti18      1.0  0.33949  0.42730  0.51545  1.0000
  Ti  Ti19      1.0  0.41223  0.69210  0.13564  1.0000
  Ti  Ti20      1.0  0.65382  0.59718  0.56515  1.0000
  Ti  Ti21      1.0  0.38911  0.67275  0.41240  1.0000
  Ti  Ti22      1.0  0.32242  0.82931  0.75643  1.0000
  Ti  Ti23      1.0  0.52745  0.87325  0.78803  1.0000
  Ti  Ti24      1.0  0.49772  0.74976  0.78530  1.0000
  Ti  Ti25      1.0  0.51787  0.25751  0.78166  1.0000
  Ti  Ti26      1.0  0.38957  0.35200  0.98806  1.0000
  Ti  Ti27      1.0  0.51267  0.26755  0.48338  1.0000
  Ti  Ti28      1.0  0.48185  0.37991  0.25670  1.0000
  Ti  Ti29      1.0  0.65285  0.41244  0.01016  1.0000
  Ti  Ti30      1.0  0.48502  0.52925  0.96566  1.0000
  Ti  Ti31      1.0  0.82373  0.55561  0.28009  1.0000
  Ti  Ti32      1.0  0.85728  0.46817  0.69909  1.0000
  Ti  Ti33      1.0  0.81889  0.53411  0.97024  1.0000
  Ti  Ti34      1.0  0.69961  0.87895  0.89353  1.0000
  Ti  Ti35      1.0  0.55301  0.72539  0.24158  1.0000
  Ti  Ti36      1.0  0.82075  0.69504  0.60135  1.0000
  Ti  Ti37      1.0  0.72578  0.16251  0.20691  1.0000
  Ti  Ti38      1.0  0.90787  0.12895  0.13646  1.0000
  Ti  Ti39      1.0  0.82629  0.12089  0.60904  1.0000
  Ti  Ti40      1.0  0.94800  0.31491  0.17898  1.0000
  Ti  Ti41      1.0  0.99434  0.20047  0.48803  1.0000
  Ti  Ti42      1.0  0.13248  0.99485  0.50756  1.0000
  Ti  Ti43      1.0  0.09500  0.38926  0.22441  1.0000
  Ti  Ti44      1.0  0.09646  0.53886  0.52732  1.0000
  Ti  Ti45      1.0  0.11355  0.57936  0.85268  1.0000
  Ti  Ti46      1.0  0.74569  0.98324  0.42752  1.0000
  Ti  Ti47      1.0  0.66644  0.03753  0.70848  1.0000
  Ti  Ti48      1.0  0.60392  0.08563  0.98466  1.0000
  Ti  Ti49      1.0  0.32867  0.92478  0.34217  1.0000
  Ti  Ti50      1.0  0.09103  0.06836  0.83680  1.0000
  Ti  Ti51      1.0  0.18682  0.00997  0.10647  1.0000
  Ti  Ti52      1.0  0.15492  0.18314  0.35240  1.0000
  Ti  Ti53      1.0  0.03397  0.42036  0.73875  1.0000
  Ti  Ti54      1.0  0.16279  0.17231  0.87944  1.0000
  Ti  Ti55      1.0  0.88913  0.79349  0.01611  1.0000
  Ti  Ti56      1.0  0.93818  0.95140  0.44865  1.0000
  Ti  Ti57      1.0  0.85071  0.94739  0.14272  1.0000
  Ti  Ti58      1.0  0.05009  0.93627  0.13961  1.0000
  Ti  Ti59      1.0  0.18160  0.84020  0.04182  1.0000
  Ti  Ti60      1.0  0.05817  0.75625  0.62455  1.0000
  Ti  Ti61      1.0  0.38076  0.11277  0.22291  1.0000
  Ti  Ti62      1.0  0.28678  0.22571  0.47463  1.0000
  Ti  Ti63      1.0  0.35469  0.08955  0.73157  1.0000
  Ti  Ti64      1.0  0.31547  0.39615  0.61842  1.0000
  Ti  Ti65      1.0  0.27927  0.63155  0.10031  1.0000
  Ti  Ti66      1.0  0.19273  0.63515  0.35275  1.0000
  Ti  Ti67      1.0  0.36240  0.73947  0.27934  1.0000
  Ti  Ti68      1.0  0.67694  0.59147  0.75120  1.0000
  Ti  Ti69      1.0  0.35097  0.67919  0.56717  1.0000
  Ti  Ti70      1.0  0.40799  0.78401  0.75821  1.0000
  Ti  Ti71      1.0  0.59904  0.81831  0.63588  1.0000
  Ti  Ti72      1.0  0.54941  0.86862  0.94883  1.0000
  Ti  Ti73      1.0  0.55414  0.19361  0.63730  1.0000
  Ti  Ti74      1.0  0.43013  0.27432  0.86026  1.0000
  Ti  Ti75      1.0  0.31732  0.37595  0.10367  1.0000
  Ti  Ti76      1.0  0.45499  0.60617  0.83286  1.0000
  Ti  Ti77      1.0  0.44603  0.47355  0.28869  1.0000
  Ti  Ti78      1.0  0.58119  0.48807  0.96735  1.0000
  Ti  Ti79      1.0  0.87373  0.50280  0.11910  1.0000
  Ti  Ti80      1.0  0.89755  0.53503  0.39661  1.0000
  Ti  Ti81      1.0  0.87631  0.48368  0.84089  1.0000
  Ti  Ti82      1.0  0.71776  0.90995  0.97260  1.0000
  Ti  Ti83      1.0  0.65783  0.68121  0.25393  1.0000
  Ti  Ti84      1.0  0.83482  0.71945  0.49337  1.0000
  Ti  Ti85      1.0  0.67588  0.17402  0.32419  1.0000
  Ti  Ti86      1.0  0.81684  0.14383  0.15331  1.0000
  Ti  Ti87      1.0  0.74658  0.19673  0.65815  1.0000
  Ti  Ti88      1.0  0.99152  0.31042  0.04360  1.0000
  Ti  Ti89      1.0  0.90156  0.24231  0.51096  1.0000
  Ti  Ti90      1.0  0.13267  0.92898  0.55013  1.0000
  Ti  Ti91      1.0  0.11026  0.55125  0.00731  1.0000
  Ti  Ti92      1.0  0.06877  0.37411  0.34120  1.0000
  Ti  Ti93      1.0  0.07560  0.57509  0.68866  1.0000
  Ti  Ti94      1.0  0.56330  0.07880  0.12073  1.0000
  Ti  Ti95      1.0  0.65522  0.01815  0.52553  1.0000
  Ti  Ti96      1.0  0.58716  0.05271  0.83357  1.0000
  I   I1        1.0  0.07874  0.04669  0.74948  1.0000
  I   I2        1.0  0.14039  0.04732  0.03491  1.0000
  I   I3        1.0  0.36275  0.86755  0.31888  1.0000
  I   I4        1.0  0.99250  0.40409  0.71815  1.0000
  I   I5        1.0  0.13524  0.20744  0.78550  1.0000
  I   I6        1.0  0.13308  0.26197  0.00586  1.0000
  I   I7        1.0  0.91189  0.97721  0.35938  1.0000
  I   I8        1.0  0.94081  0.00439  0.64524  1.0000
  I   I9        1.0  0.92065  0.82466  0.06463  1.0000
  I   I10       1.0  0.12332  0.85007  0.98150  1.0000
  I   I11       1.0  0.11556  0.74205  0.58224  1.0000
  I   I12       1.0  0.07537  0.95578  0.20996  1.0000
  I   I13       1.0  0.30873  0.17122  0.41046  1.0000
  I   I14       1.0  0.37162  0.06669  0.84133  1.0000
  I   I15       1.0  0.38615  0.05619  0.18910  1.0000
  I   I16       1.0  0.32485  0.64147  0.05467  1.0000
  I   I17       1.0  0.24042  0.60851  0.26547  1.0000
  I   I18       1.0  0.31156  0.39632  0.72922  1.0000
  I   I19       1.0  0.66298  0.56167  0.82603  1.0000
  I   I20       1.0  0.31922  0.73782  0.57774  1.0000
  I   I21       1.0  0.36678  0.74583  0.38760  1.0000
  I   I22       1.0  0.59277  0.78825  0.55605  1.0000
  I   I23       1.0  0.48190  0.90298  0.72684  1.0000
  I   I24       1.0  0.44399  0.81299  0.77238  1.0000
  I   I25       1.0  0.48694  0.23268  0.85431  1.0000
  I   I26       1.0  0.35924  0.32481  0.03670  1.0000
  I   I27       1.0  0.60110  0.16497  0.57843  1.0000
  I   I28       1.0  0.43913  0.43731  0.20957  1.0000
  I   I29       1.0  0.61365  0.42888  0.92328  1.0000
  I   I30       1.0  0.48560  0.54047  0.84780  1.0000
  I   I31       1.0  0.88018  0.57645  0.30895  1.0000
  I   I32       1.0  0.88139  0.50442  0.73303  1.0000
  I   I33       1.0  0.87388  0.52961  0.02136  1.0000
  I   I34       1.0  0.60360  0.66599  0.23853  1.0000
  I   I35       1.0  0.77487  0.74720  0.54232  1.0000
  I   I36       1.0  0.73790  0.94919  0.99322  1.0000
  I   I37       1.0  0.77659  0.12072  0.13052  1.0000
  I   I38       1.0  0.70795  0.20323  0.58448  1.0000
  I   I39       1.0  0.68877  0.12696  0.39534  1.0000
  I   I40       1.0  0.86753  0.30169  0.52995  1.0000
  I   I41       1.0  0.09992  0.91696  0.48098  1.0000
  I   I42       1.0  0.99735  0.33673  0.13132  1.0000
  I   I43       1.0  0.09939  0.40597  0.34086  1.0000
  I   I44       1.0  0.08934  0.51951  0.62648  1.0000
  I   I45       1.0  0.08723  0.54474  0.88946  1.0000
  I   I46       1.0  0.70417  0.96119  0.46670  1.0000
  I   I47       1.0  0.62168  0.01414  0.74935  1.0000
  I   I48       1.0  0.55766  0.06937  0.01162  1.0000
  I   I49       1.0  0.31510  0.98411  0.39316  1.0000
  I   I50       1.0  0.15091  0.05218  0.86992  1.0000
  I   I51       1.0  0.24682  0.96322  0.13130  1.0000
  I   I52       1.0  0.14319  0.18410  0.45893  1.0000
  I   I53       1.0  0.00511  0.47671  0.77730  1.0000
  I   I54       1.0  0.18136  0.15124  0.98354  1.0000
  I   I55       1.0  0.85158  0.76827  0.01005  1.0000
  I   I56       1.0  0.95709  0.90883  0.54095  1.0000
  I   I57       1.0  0.84498  0.90386  0.04752  1.0000
  I   I58       1.0  0.05905  0.82911  0.06824  1.0000
  I   I59       1.0  0.17448  0.88702  0.98709  1.0000
  I   I60       1.0  0.00309  0.78645  0.69636  1.0000
  I   I61       1.0  0.36475  0.16462  0.28212  1.0000
  I   I62       1.0  0.27059  0.28255  0.49406  1.0000
  I   I63       1.0  0.40816  0.08886  0.73215  1.0000
  I   I64       1.0  0.22024  0.63736  0.89116  1.0000
  I   I65       1.0  0.22393  0.62903  0.11228  1.0000
  I   I66       1.0  0.19177  0.58401  0.36343  1.0000
  I   I67       1.0  0.35088  0.72672  0.16546  1.0000
  I   I68       1.0  0.66157  0.55840  0.65457  1.0000
  I   I69       1.0  0.34023  0.67238  0.45993  1.0000
  I   I70       1.0  0.35880  0.76971  0.79281  1.0000
  I   I71       1.0  0.57658  0.87229  0.72767  1.0000
  I   I72       1.0  0.59010  0.82370  0.00492  1.0000
  I   I73       1.0  0.49832  0.24144  0.67728  1.0000
  I   I74       1.0  0.37736  0.32866  0.87710  1.0000
  I   I75       1.0  0.30931  0.41603  0.18401  1.0000
  I   I76       1.0  0.48486  0.32848  0.28499  1.0000
  I   I77       1.0  0.47297  0.48203  0.36698  1.0000
  I   I78       1.0  0.53636  0.53981  0.99512  1.0000
  I   I79       1.0  0.87157  0.49478  0.24366  1.0000
  I   I80       1.0  0.89715  0.50837  0.49397  1.0000
  I   I81       1.0  0.86230  0.46578  0.93651  1.0000
  I   I82       1.0  0.70638  0.83945  0.97584  1.0000
  I   I83       1.0  0.52609  0.71744  0.33187  1.0000
  I   I84       1.0  0.88692  0.66966  0.47086  1.0000
  I   I85       1.0  0.75264  0.12160  0.28380  1.0000
  I   I86       1.0  0.85377  0.17309  0.19992  1.0000
  I   I87       1.0  0.85803  0.10909  0.70035  1.0000
  I   I88       1.0  0.92611  0.34738  0.06837  1.0000
  I   I89       1.0  0.04732  0.16260  0.53673  1.0000
  I   I90       1.0  0.15393  0.97809  0.60902  1.0000
  I   I91       1.0  0.15120  0.54550  0.08375  1.0000
  I   I92       1.0  0.02610  0.41303  0.40462  1.0000
  I   I93       1.0  0.06648  0.61302  0.78725  1.0000
  I   I94       1.0  0.50823  0.10889  0.15733  1.0000
  I   I95       1.0  0.63940  0.06638  0.59366  1.0000
  I   I96       1.0  0.56543  0.10933  0.89335  1.0000
  I   I97       1.0  0.29872  0.92940  0.24025  1.0000
  I   I98       1.0  0.37049  0.99507  0.50107  1.0000
  I   I99       1.0  0.20919  0.01797  0.99836  1.0000
  I   I100      1.0  0.13946  0.14454  0.30301  1.0000
  I   I101      1.0  0.12776  0.11173  0.44288  1.0000
  I   I102      1.0  0.02240  0.39056  0.85108  1.0000
  I   I103      1.0  0.84440  0.83044  0.08840  1.0000
  I   I104      1.0  0.89971  0.70794  0.89756  1.0000
  I   I105      1.0  0.80017  0.97899  0.09384  1.0000
  I   I106      1.0  0.95666  0.74636  0.67445  1.0000
  I   I107      1.0  0.15337  0.80701  0.11754  1.0000
  I   I108      1.0  0.08488  0.72003  0.72223  1.0000
  I   I109      1.0  0.43941  0.08736  0.24968  1.0000
  I   I110      1.0  0.34254  0.21618  0.41202  1.0000
  I   I111      1.0  0.39031  0.99510  0.77015  1.0000
  I   I112      1.0  0.37250  0.36165  0.59578  1.0000
  I   I113      1.0  0.24167  0.67556  0.01535  1.0000
  I   I114      1.0  0.15446  0.64098  0.22774  1.0000
  I   I115      1.0  0.37276  0.67939  0.30270  1.0000
  I   I116      1.0  0.47060  0.66836  0.11300  1.0000
  I   I117      1.0  0.61169  0.58381  0.52281  1.0000
  I   I118      1.0  0.45445  0.73857  0.70544  1.0000
  I   I119      1.0  0.27875  0.84939  0.82970  1.0000
  I   I120      1.0  0.51055  0.91815  0.87014  1.0000
  I   I121      1.0  0.56241  0.24026  0.56779  1.0000
  I   I122      1.0  0.46390  0.30180  0.78698  1.0000
  I   I123      1.0  0.33412  0.40505  0.01668  1.0000
  I   I124      1.0  0.45651  0.59045  0.95722  1.0000
  I   I125      1.0  0.51129  0.36615  0.16552  1.0000
  I   I126      1.0  0.59221  0.45946  0.06700  1.0000
  I   I127      1.0  0.82049  0.50650  0.06651  1.0000
  I   I128      1.0  0.83701  0.53868  0.39121  1.0000
  I   I129      1.0  0.81512  0.49662  0.79378  1.0000
  I   I130      1.0  0.79405  0.68682  0.68963  1.0000
  I   I131      1.0  0.69044  0.93744  0.87442  1.0000
  I   I132      1.0  0.67657  0.70544  0.32835  1.0000
  I   I133      1.0  0.76710  0.23687  0.67764  1.0000
  I   I134      1.0  0.76956  0.18834  0.20915  1.0000
  I   I135      1.0  0.92991  0.12205  0.23612  1.0000
  I   I136      1.0  0.09791  0.05110  0.53736  1.0000
  I   I137      1.0  0.98804  0.28266  0.25603  1.0000
  I   I138      1.0  0.02439  0.18540  0.39306  1.0000
  I   I139      1.0  0.08815  0.61540  0.94736  1.0000
  I   I140      1.0  0.03494  0.42058  0.25273  1.0000
  I   I141      1.0  0.12067  0.56438  0.60492  1.0000
  I   I142      1.0  0.56294  0.14051  0.03376  1.0000
  I   I143      1.0  0.70862  0.03316  0.49169  1.0000
  I   I144      1.0  0.63504  0.08101  0.78419  1.0000
  I   I145      1.0  0.36649  0.94752  0.29092  1.0000
  I   I146      1.0  0.11937  0.00958  0.90596  1.0000
  I   I147      1.0  0.28577  0.87297  0.18301  1.0000
  I   I148      1.0  0.21318  0.13246  0.37796  1.0000
  I   I149      1.0  0.10236  0.42874  0.81061  1.0000
  I   I150      1.0  0.19407  0.20388  0.89885  1.0000
  I   I151      1.0  0.92646  0.75268  0.08969  1.0000
  I   I152      1.0  0.89158  0.94896  0.67519  1.0000
  I   I153      1.0  0.90618  0.89779  0.16331  1.0000
  I   I154      1.0  0.04358  0.90626  0.04190  1.0000
  I   I155      1.0  0.17095  0.70381  0.70957  1.0000
  I   I156      1.0  0.04587  0.70884  0.60358  1.0000
  I   I157      1.0  0.38025  0.09616  0.34313  1.0000
  I   I158      1.0  0.29850  0.10002  0.77682  1.0000
  I   I159      1.0  0.29562  0.06593  0.16232  1.0000
  I   I160      1.0  0.30060  0.40862  0.50223  1.0000
  I   I161      1.0  0.24485  0.67777  0.16111  1.0000
  I   I162      1.0  0.31091  0.47928  0.45763  1.0000
  I   I163      1.0  0.42608  0.70286  0.23592  1.0000
  I   I164      1.0  0.63208  0.64474  0.77138  1.0000
  I   I165      1.0  0.40946  0.66331  0.52782  1.0000
  I   I166      1.0  0.38637  0.80308  0.65909  1.0000
  I   I167      1.0  0.54701  0.82593  0.67198  1.0000
  I   I168      1.0  0.52099  0.69173  0.78562  1.0000
  I   I169      1.0  0.57865  0.19121  0.73437  1.0000
  I   I170      1.0  0.44286  0.29866  0.95684  1.0000
  I   I171      1.0  0.54324  0.25862  0.39093  1.0000
  I   I172      1.0  0.45985  0.59270  0.73143  1.0000
  I   I173      1.0  0.65252  0.36120  0.02397  1.0000
  I   I174      1.0  0.53449  0.47544  0.95996  1.0000
  I   I175      1.0  0.83585  0.56371  0.16918  1.0000
  I   I176      1.0  0.89627  0.44343  0.62294  1.0000
  I   I177      1.0  0.83319  0.55211  0.87105  1.0000
  I   I178      1.0  0.76544  0.85815  0.92053  1.0000
  I   I179      1.0  0.60150  0.73575  0.26745  1.0000
  I   I180      1.0  0.80931  0.66676  0.50494  1.0000
  I   I181      1.0  0.68706  0.13795  0.23195  1.0000
  I   I182      1.0  0.82116  0.15613  0.05058  1.0000
  I   I183      1.0  0.81411  0.08307  0.55425  1.0000
  I   I184      1.0  0.90805  0.29864  0.17212  1.0000
  I   I185      1.0  0.94378  0.25282  0.44023  1.0000
  I   I186      1.0  0.17881  0.91728  0.47572  1.0000
  I   I187      1.0  0.07755  0.36872  0.13503  1.0000
  I   I188      1.0  0.05918  0.52885  0.46814  1.0000
  I   I189      1.0  0.12774  0.53896  0.75486  1.0000
  I   I190      1.0  0.78364  0.92667  0.43440  1.0000
  I   I191      1.0  0.68698  0.98950  0.63223  1.0000
  I   I192      1.0  0.62905  0.02915  0.91475  1.0000
  I   I193      1.0  0.38978  0.99990  0.35466  1.0000
  I   I194      1.0  0.20540  0.95622  0.88830  1.0000
  I   I195      1.0  0.30257  0.90072  0.02496  1.0000
  I   I196      1.0  0.18902  0.10787  0.55180  1.0000
  I   I197      1.0  0.04129  0.44910  0.93487  1.0000
  I   I198      1.0  0.22469  0.23069  0.01118  1.0000
  I   I199      1.0  0.89061  0.69825  0.08470  1.0000
  I   I200      1.0  0.97188  0.97624  0.46389  1.0000
  I   I201      1.0  0.82127  0.90736  0.17782  1.0000
  I   I202      1.0  0.07130  0.87414  0.19818  1.0000
  I   I203      1.0  0.14568  0.79441  0.66734  1.0000
  I   I204      1.0  0.95969  0.75193  0.51257  1.0000
  I   I205      1.0  0.42435  0.15902  0.37297  1.0000
  I   I206      1.0  0.31029  0.02100  0.71784  1.0000
  I   I207      1.0  0.29566  0.11909  0.04691  1.0000
  I   I208      1.0  0.27660  0.68716  0.88745  1.0000
  I   I209      1.0  0.15146  0.70352  0.12417  1.0000
  I   I210      1.0  0.29555  0.45632  0.60744  1.0000
  I   I211      1.0  0.40079  0.70605  0.03197  1.0000
  I   I212      1.0  0.72717  0.58947  0.78464  1.0000
  I   I213      1.0  0.41074  0.61270  0.41105  1.0000
  I   I214      1.0  0.29692  0.80590  0.69896  1.0000
  I   I215      1.0  0.57338  0.82981  0.86650  1.0000
  I   I216      1.0  0.52123  0.76668  0.70370  1.0000
  I   I217      1.0  0.53862  0.29608  0.73306  1.0000
  I   I218      1.0  0.40622  0.38793  0.93276  1.0000
  I   I219      1.0  0.45831  0.28892  0.44852  1.0000
  I   I220      1.0  0.52163  0.39400  0.30581  1.0000
  I   I221      1.0  0.69145  0.40675  0.93768  1.0000
  I   I222      1.0  0.47636  0.53139  0.07888  1.0000
  I   I223      1.0  0.78312  0.53822  0.27231  1.0000
  I   I224      1.0  0.83150  0.43225  0.69877  1.0000
  I   I225      1.0  0.77383  0.52381  0.93217  1.0000
  I   I226      1.0  0.64131  0.89702  0.85381  1.0000
  I   I227      1.0  0.51760  0.78205  0.22537  1.0000
  I   I228      1.0  0.85056  0.72874  0.60868  1.0000
  I   I229      1.0  0.69390  0.21552  0.25996  1.0000
  I   I230      1.0  0.92250  0.16967  0.09314  1.0000
  I   I231      1.0  0.78500  0.17494  0.55621  1.0000
  I   I232      1.0  0.92576  0.36353  0.23800  1.0000
  I   I233      1.0  0.88448  0.21895  0.59422  1.0000
  I   I234      1.0  0.10005  0.99353  0.42160  1.0000
  I   I235      1.0  0.12522  0.40158  0.14681  1.0000
  I   I236      1.0  0.08015  0.59327  0.47664  1.0000
  I   I237      1.0  0.14962  0.60121  0.84020  1.0000
  I   I238      1.0  0.73365  0.99200  0.32437  1.0000
  I   I239      1.0  0.69635  0.07155  0.70625  1.0000
  I   I240      1.0  0.64271  0.10481  0.95664  1.0000
  I   I241      1.0  0.43750  0.91700  0.42151  1.0000
  I   I242      1.0  0.17438  0.96331  0.04413  1.0000
  I   I243      1.0  0.36683  0.87000  0.13783  1.0000
  I   I244      1.0  0.21784  0.05141  0.43630  1.0000
  I   I245      1.0  0.09973  0.36341  0.91723  1.0000
  I   I246      1.0  0.18123  0.20031  0.10562  1.0000
  I   I247      1.0  0.96641  0.67554  0.00319  1.0000
  I   I248      1.0  0.97597  0.91403  0.69038  1.0000
  I   I249      1.0  0.88069  0.84241  0.23840  1.0000
  I   I250      1.0  0.11925  0.89534  0.10177  1.0000
  I   I251      1.0  0.11307  0.77694  0.78936  1.0000
  I   I252      1.0  0.93671  0.82772  0.59373  1.0000
  I   I253      1.0  0.39437  0.12443  0.49376  1.0000
  I   I254      1.0  0.32649  0.02178  0.89249  1.0000
  I   I255      1.0  0.36578  0.06985  0.02469  1.0000
  I   I256      1.0  0.30186  0.59756  0.84482  1.0000
  I   I257      1.0  0.18358  0.69458  0.29152  1.0000
  I   I258      1.0  0.37758  0.44407  0.55895  1.0000
  I   I259      1.0  0.42578  0.63409  0.14472  1.0000
  I   I260      1.0  0.63126  0.64696  0.51519  1.0000
  I   I261      1.0  0.44793  0.65976  0.39893  1.0000
  I   I262      1.0  0.30973  0.87801  0.70063  1.0000
  I   I263      1.0  0.48617  0.85629  0.83747  1.0000
  I   I264      1.0  0.52375  0.75445  0.87926  1.0000
  I   I265      1.0  0.54113  0.26659  0.87119  1.0000
  I   I266      1.0  0.41785  0.35125  0.07363  1.0000
  I   I267      1.0  0.50938  0.32137  0.52242  1.0000
  I   I268      1.0  0.47553  0.48941  0.21767  1.0000
  I   I269      1.0  0.67511  0.41519  0.10715  1.0000
  I   I270      1.0  0.43731  0.51606  0.95531  1.0000
  I   I271      1.0  0.78421  0.61259  0.29209  1.0000
  I   I272      1.0  0.81516  0.50553  0.63286  1.0000
  I   I273      1.0  0.78504  0.58420  0.02291  1.0000
  I   I274      1.0  0.71899  0.85152  0.80204  1.0000
  I   I275      1.0  0.53032  0.70129  0.16681  1.0000
  I   I276      1.0  0.87456  0.64828  0.60864  1.0000
  I   I277      1.0  0.70503  0.20148  0.11550  1.0000
  I   I278      1.0  0.94952  0.08863  0.07779  1.0000
  I   I279      1.0  0.86648  0.12186  0.54090  1.0000
  I   I280      1.0  0.97937  0.26322  0.08037  1.0000
  I   I281      1.0  0.95678  0.23983  0.57479  1.0000
  I   I282      1.0  0.17315  0.00636  0.46583  1.0000
  I   I283      1.0  0.13464  0.33580  0.27076  1.0000
  I   I284      1.0  0.14796  0.49891  0.47648  1.0000
  I   I285      1.0  0.15882  0.53421  0.93109  1.0000
  I   I286      1.0  0.78634  0.00201  0.41981  1.0000
  I   I287      1.0  0.70095  0.00010  0.78168  1.0000
  I   I288      1.0  0.63522  0.05080  0.08128  1.0000
  I   I289      1.0  0.35476  0.91852  0.43874  1.0000
  I   I290      1.0  0.04857  0.09715  0.90853  1.0000
  I   I291      1.0  0.15292  0.00080  0.17772  1.0000
  I   I292      1.0  0.10806  0.23732  0.32578  1.0000
  I   I293      1.0  0.04576  0.44495  0.65476  1.0000
  I   I294      1.0  0.19980  0.13209  0.81527  1.0000
  I   I295      1.0  0.93626  0.74959  0.93614  1.0000
  I   I296      1.0  0.97221  0.90055  0.39599  1.0000
  I   I297      1.0  0.84199  0.97568  0.23614  1.0000
  I   I298      1.0  0.02543  0.98612  0.06195  1.0000
  I   I299      1.0  0.22021  0.79135  0.99339  1.0000
  I   I300      1.0  0.02350  0.78421  0.54060  1.0000
  I   I301      1.0  0.31466  0.13036  0.19380  1.0000
  I   I302      1.0  0.31825  0.20616  0.56192  1.0000
  I   I303      1.0  0.32584  0.14631  0.68888  1.0000
  I   I304      1.0  0.28833  0.36037  0.61417  1.0000
  I   I305      1.0  0.31593  0.58468  0.15648  1.0000
  I   I306      1.0  0.13586  0.66113  0.37661  1.0000
  I   I307      1.0  0.37889  0.78329  0.26517  1.0000
  I   I308      1.0  0.69885  0.56269  0.50467  1.0000
  I   I309      1.0  0.30528  0.66956  0.60741  1.0000
  I   I310      1.0  0.37221  0.83569  0.82097  1.0000
  I   I311      1.0  0.62545  0.84459  0.57353  1.0000
  I   I312      1.0  0.50187  0.87790  0.00593  1.0000
  I   I313      1.0  0.53072  0.15864  0.65665  1.0000
  I   I314      1.0  0.40966  0.24417  0.92818  1.0000
  I   I315      1.0  0.31900  0.33296  0.17368  1.0000
  I   I316      1.0  0.49887  0.61823  0.85716  1.0000
  I   I317      1.0  0.44276  0.41652  0.34662  1.0000
  I   I318      1.0  0.57958  0.50302  0.85977  1.0000
  I   I319      1.0  0.92462  0.50026  0.13904  1.0000
  I   I320      1.0  0.93066  0.55373  0.44149  1.0000
  I   I321      1.0  0.92181  0.49293  0.86563  1.0000
  I   I322      1.0  0.65705  0.94422  0.00192  1.0000
  I   I323      1.0  0.66563  0.70296  0.16189  1.0000
  I   I324      1.0  0.85572  0.76047  0.48080  1.0000
  I   I325      1.0  0.68647  0.20248  0.40857  1.0000
  I   I326      1.0  0.87591  0.09619  0.13009  1.0000
  I   I327      1.0  0.78045  0.13652  0.68801  1.0000
  I   I328      1.0  0.04528  0.27866  0.02314  1.0000
  I   I329      1.0  0.95807  0.17633  0.46751  1.0000
  I   I330      1.0  0.13847  0.88605  0.61600  1.0000
  I   I331      1.0  0.11176  0.49938  0.02939  1.0000
  I   I332      1.0  0.09659  0.34300  0.42780  1.0000
  I   I333      1.0  0.03118  0.56338  0.72945  1.0000
  I   I334      1.0  0.58254  0.11025  0.18133  1.0000
  I   I335      1.0  0.61885  0.99417  0.52285  1.0000
  I   I336      1.0  0.56037  0.02065  0.87577  1.0000
  I   I337      1.0  0.28358  0.91845  0.39391  1.0000
  I   I338      1.0  0.09027  0.11299  0.77922  1.0000
  I   I339      1.0  0.18445  0.06192  0.13242  1.0000
  I   I340      1.0  0.18326  0.19312  0.26665  1.0000
  I   I341      1.0  0.09081  0.37032  0.74582  1.0000
  I   I342      1.0  0.11048  0.16921  0.89397  1.0000
  I   I343      1.0  0.88282  0.82790  0.92177  1.0000
  I   I344      1.0  0.89043  0.98359  0.52747  1.0000
  I   I345      1.0  0.87825  0.96734  0.07559  1.0000
  I   I346      1.0  0.99928  0.94490  0.20244  1.0000
  I   I347      1.0  0.21501  0.84914  0.11107  1.0000
  I   I348      1.0  0.05942  0.81002  0.65192  1.0000
  I   I349      1.0  0.38828  0.13618  0.13028  1.0000
  I   I350      1.0  0.23376  0.23722  0.51235  1.0000
  I   I351      1.0  0.36652  0.05781  0.64153  1.0000
  I   I352      1.0  0.38058  0.38976  0.44127  1.0000
  I   I353      1.0  0.29217  0.59151  0.00334  1.0000
  I   I354      1.0  0.23419  0.63341  0.41777  1.0000
  I   I355      1.0  0.30666  0.76427  0.28659  1.0000
  I   I356      1.0  0.68776  0.61286  0.64033  1.0000
  I   I357      1.0  0.38171  0.65878  0.65663  1.0000
  I   I358      1.0  0.44381  0.75205  0.84962  1.0000
  I   I359      1.0  0.64608  0.77759  0.69757  1.0000
  I   I360      1.0  0.58026  0.89633  0.99200  1.0000
  I   I361      1.0  0.51159  0.21463  0.52035  1.0000
  I   I362      1.0  0.40966  0.26763  0.77242  1.0000
  I   I363      1.0  0.26553  0.38804  0.07063  1.0000
  I   I364      1.0  0.40426  0.65583  0.84544  1.0000
  I   I365      1.0  0.39366  0.52310  0.27958  1.0000
  I   I366      1.0  0.62456  0.50032  0.99158  1.0000
  I   I367      1.0  0.89950  0.44526  0.10156  1.0000
  I   I368      1.0  0.94166  0.48334  0.35284  1.0000
  I   I369      1.0  0.90411  0.42504  0.81413  1.0000
  I   I370      1.0  0.73969  0.88566  0.07669  1.0000
  I   I371      1.0  0.69497  0.62285  0.25569  1.0000
  I   I372      1.0  0.80850  0.72634  0.40165  1.0000
  I   I373      1.0  0.61865  0.20522  0.33588  1.0000
  I   I374      1.0  0.83318  0.11329  0.25659  1.0000
  I   I375      1.0  0.71494  0.21015  0.74898  1.0000
  I   I376      1.0  0.97452  0.34436  0.94976  1.0000
  I   I377      1.0  0.86979  0.24256  0.43033  1.0000
  I   I378      1.0  0.08329  0.98408  0.56277  1.0000
  I   I379      1.0  0.05818  0.58209  0.05533  1.0000
  I   I380      1.0  0.04830  0.33709  0.30200  1.0000
  I   I381      1.0  0.03405  0.62093  0.63841  1.0000
  I   I382      1.0  0.58123  0.02576  0.16565  1.0000
  I   I383      1.0  0.62385  0.04748  0.43577  1.0000
  I   I384      1.0  0.54316  0.08276  0.76559  1.0000
