data_image0
_chemical_formula_structural       Ti96I384
_chemical_formula_sum              "Ti96 I384"
_cell_length_a       64.9171
_cell_length_b       64.6913
_cell_length_c       31.5529
_cell_angle_alpha    88.7757
_cell_angle_beta     88.7757
_cell_angle_gamma    62.1586

_space_group_name_H-M_alt    "P 1"
_space_group_IT_number       1

loop_
  _space_group_symop_operation_xyz
  'x, y, z'

loop_
  _atom_site_type_symbol
  _atom_site_label
  _atom_site_symmetry_multiplicity
  _atom_site_fract_x
  _atom_site_fract_y
  _atom_site_fract_z
  _atom_site_occupancy
  Ti  Ti1       1.0  0.54216  0.85518  0.69427  1.0000
  Ti  Ti2       1.0  0.35517  0.10312  0.39976  1.0000
  Ti  Ti3       1.0  0.98439  0.58666  0.15145  1.0000
  Ti  Ti4       1.0  0.98219  0.99821  0.98485  1.0000
  Ti  Ti5       1.0  0.08724  0.79095  0.65477  1.0000
  Ti  Ti6       1.0  0.39426  0.26627  0.00439  1.0000
  Ti  Ti7       1.0  0.85582  0.96602  0.06676  1.0000
  Ti  Ti8       1.0  0.50012  0.20328  0.41614  1.0000
  Ti  Ti9       1.0  0.26674  0.79862  0.24129  1.0000
  Ti  Ti10      1.0  0.78983  0.86322  0.93364  1.0000
  Ti  Ti11      1.0  0.19830  0.48916  0.68018  1.0000
  Ti  Ti12      1.0  0.05715  0.66751  0.47517  1.0000
  Ti  Ti13      1.0  0.20357  0.26538  0.60749  1.0000
  Ti  Ti14      1.0  0.07882  0.03191  0.49462  1.0000
  Ti  Ti15      1.0  0.61204  0.26570  0.80433  1.0000
  Ti  Ti16      1.0  0.60877  0.99657  0.77629  1.0000
  Ti  Ti17      1.0  0.40638  0.17229  0.68489  1.0000
  Ti  Ti18      1.0  0.12933  0.65659  0.90297  1.0000
  Ti  Ti19      1.0  0.71235  0.80342  0.35672  1.0000
  Ti  Ti20      1.0  0.49443  0.01485  0.88377  1.0000
  Ti  Ti21      1.0  0.09702  0.10826  0.81172  1.0000
  Ti  Ti22      1.0  0.63095  0.39119  0.75358  1.0000
  Ti  Ti23      1.0  0.66276  0.02109  0.26043  1.0000
  Ti  Ti24      1.0  0.95273  0.89192  0.25960  1.0000
  Ti  Ti25      1.0  0.73283  0.67930  0.22085  1.0000
  Ti  Ti26      1.0  0.37910  0.96213  0.94205  1.0000
  Ti  Ti27      1.0  0.13631  0.78180  0.25516  1.0000
  Ti  Ti28      1.0  0.62102  0.37849  0.07568  1.0000
  Ti  Ti29      1.0  0.80666  0.93396  0.39512  1.0000
  Ti  Ti30      1.0  0.78242  0.33319  0.23354  1.0000
  Ti  Ti31      1.0  0.85198  0.28095  0.61838  1.0000
  Ti  Ti32      1.0  0.59979  0.24429  0.24893  1.0000
  Ti  Ti33      1.0  0.37733  0.89834  0.58557  1.0000
  Ti  Ti34      1.0  0.54976  0.53884  0.87891  1.0000
  Ti  Ti35      1.0  0.76400  0.45872  0.62704  1.0000
  Ti  Ti36      1.0  0.94258  0.56649  0.65461  1.0000
  Ti  Ti37      1.0  0.00635  0.34606  0.25584  1.0000
  Ti  Ti38      1.0  0.43340  0.35826  0.15594  1.0000
  Ti  Ti39      1.0  0.90663  0.07396  0.52528  1.0000
  Ti  Ti40      1.0  0.35078  0.00506  0.19485  1.0000
  Ti  Ti41      1.0  0.60630  0.66522  0.27694  1.0000
  Ti  Ti42      1.0  0.85609  0.27642  0.91994  1.0000
  Ti  Ti43      1.0  0.69475  0.10883  0.59681  1.0000
  Ti  Ti44      1.0  0.82283  0.51973  0.17232  1.0000
  Ti  Ti45      1.0  0.47621  0.51471  0.43499  1.0000
  Ti  Ti46      1.0  0.30981  0.44337  0.05600  1.0000
  Ti  Ti47      1.0  0.03939  0.46550  0.12590  1.0000
  Ti  Ti48      1.0  0.49249  0.70412  0.58793  1.0000
  Ti  Ti49      1.0  0.52932  0.82275  0.73311  1.0000
  Ti  Ti50      1.0  0.12044  0.14663  0.59656  1.0000
  Ti  Ti51      1.0  0.30258  0.15448  0.38485  1.0000
  Ti  Ti52      1.0  0.94136  0.07300  0.99960  1.0000
  Ti  Ti53      1.0  0.19626  0.66245  0.61608  1.0000
  Ti  Ti54      1.0  0.40849  0.21004  0.01706  1.0000
  Ti  Ti55      1.0  0.84915  0.93570  0.99288  1.0000
  Ti  Ti56      1.0  0.43633  0.23714  0.46247  1.0000
  Ti  Ti57      1.0  0.27588  0.77090  0.33338  1.0000
  Ti  Ti58      1.0  0.65390  0.14879  0.51056  1.0000
  Ti  Ti59      1.0  0.74440  0.90493  0.95291  1.0000
  Ti  Ti60      1.0  0.08090  0.61500  0.36970  1.0000
  Ti  Ti61      1.0  0.56014  0.29743  0.89822  1.0000
  Ti  Ti62      1.0  0.24274  0.26654  0.54463  1.0000
  Ti  Ti63      1.0  0.07023  0.98348  0.51082  1.0000
  Ti  Ti64      1.0  0.09181  0.62268  0.88455  1.0000
  Ti  Ti65      1.0  0.13835  0.39554  0.74585  1.0000
  Ti  Ti66      1.0  0.48810  0.39649  0.25699  1.0000
  Ti  Ti67      1.0  0.63965  0.82997  0.42386  1.0000
  Ti  Ti68      1.0  0.00801  0.33843  0.86317  1.0000
  Ti  Ti69      1.0  0.03939  0.15944  0.79907  1.0000
  Ti  Ti70      1.0  0.62330  0.41503  0.62797  1.0000
  Ti  Ti71      1.0  0.64333  0.99851  0.32424  1.0000
  Ti  Ti72      1.0  0.10297  0.93403  0.22885  1.0000
  Ti  Ti73      1.0  0.18375  0.71625  0.19134  1.0000
  Ti  Ti74      1.0  0.78339  0.68696  0.20338  1.0000
  Ti  Ti75      1.0  0.36917  0.00546  0.01309  1.0000
  Ti  Ti76      1.0  0.80271  0.30672  0.31483  1.0000
  Ti  Ti77      1.0  0.65621  0.34929  0.18674  1.0000
  Ti  Ti78      1.0  0.81264  0.98657  0.43980  1.0000
  Ti  Ti79      1.0  0.38180  0.46232  0.89903  1.0000
  Ti  Ti80      1.0  0.79458  0.29661  0.62718  1.0000
  Ti  Ti81      1.0  0.66381  0.22421  0.32085  1.0000
  Ti  Ti82      1.0  0.49583  0.56163  0.92138  1.0000
  Ti  Ti83      1.0  0.76401  0.51473  0.63323  1.0000
  Ti  Ti84      1.0  0.90863  0.54824  0.60586  1.0000
  Ti  Ti85      1.0  0.01952  0.29508  0.28803  1.0000
  Ti  Ti86      1.0  0.41858  0.41590  0.22452  1.0000
  Ti  Ti87      1.0  0.93720  0.01198  0.58126  1.0000
  Ti  Ti88      1.0  0.53939  0.90804  0.14743  1.0000
  Ti  Ti89      1.0  0.56627  0.67507  0.18261  1.0000
  Ti  Ti90      1.0  0.81974  0.25651  0.84870  1.0000
  Ti  Ti91      1.0  0.47404  0.56275  0.50988  1.0000
  Ti  Ti92      1.0  0.72547  0.98015  0.73805  1.0000
  Ti  Ti93      1.0  0.76351  0.53901  0.11677  1.0000
  Ti  Ti94      1.0  0.45992  0.75502  0.48687  1.0000
  Ti  Ti95      1.0  0.26101  0.42534  0.08363  1.0000
  Ti  Ti96      1.0  0.04115  0.48385  0.99291  1.0000
  I   I1        1.0  0.02984  0.45115  0.98128  1.0000
  I   I2        1.0  0.39640  0.07672  0.35854  1.0000
  I   I3        1.0  0.56634  0.77664  0.72956  1.0000
  I   I4        1.0  0.23441  0.64153  0.66281  1.0000
  I   I5        1.0  0.37984  0.25663  0.07832  1.0000
  I   I6        1.0  0.44034  0.17009  0.97164  1.0000
  I   I7        1.0  0.48298  0.18392  0.47162  1.0000
  I   I8        1.0  0.44088  0.25223  0.54613  1.0000
  I   I9        1.0  0.27456  0.75021  0.24556  1.0000
  I   I10       1.0  0.77273  0.83790  0.90590  1.0000
  I   I11       1.0  0.22449  0.44486  0.69036  1.0000
  I   I12       1.0  0.04805  0.82752  0.66338  1.0000
  I   I13       1.0  0.25359  0.22443  0.58099  1.0000
  I   I14       1.0  0.07913  0.94240  0.49358  1.0000
  I   I15       1.0  0.65752  0.23658  0.80380  1.0000
  I   I16       1.0  0.65130  0.97966  0.78638  1.0000
  I   I17       1.0  0.51442  0.35472  0.27961  1.0000
  I   I18       1.0  0.11272  0.60610  0.95940  1.0000
  I   I19       1.0  0.52427  0.00774  0.82084  1.0000
  I   I20       1.0  0.18914  0.48666  0.60047  1.0000
  I   I21       1.0  0.12538  0.08363  0.86951  1.0000
  I   I22       1.0  0.66113  0.98583  0.22678  1.0000
  I   I23       1.0  0.66220  0.05030  0.31932  1.0000
  I   I24       1.0  0.58095  0.44042  0.60128  1.0000
  I   I25       1.0  0.82182  0.68491  0.23321  1.0000
  I   I26       1.0  0.41486  0.99743  0.02869  1.0000
  I   I27       1.0  0.12852  0.78232  0.33434  1.0000
  I   I28       1.0  0.64471  0.34353  0.26174  1.0000
  I   I29       1.0  0.84189  0.99674  0.48094  1.0000
  I   I30       1.0  0.79173  0.30642  0.39327  1.0000
  I   I31       1.0  0.78479  0.26509  0.58342  1.0000
  I   I32       1.0  0.65412  0.26775  0.33984  1.0000
  I   I33       1.0  0.38354  0.48432  0.83119  1.0000
  I   I34       1.0  0.79300  0.53167  0.65475  1.0000
  I   I35       1.0  0.91073  0.58566  0.58309  1.0000
  I   I36       1.0  0.58457  0.49661  0.86529  1.0000
  I   I37       1.0  0.01041  0.27558  0.22161  1.0000
  I   I38       1.0  0.91426  0.02475  0.50582  1.0000
  I   I39       1.0  0.97076  0.34795  0.21984  1.0000
  I   I40       1.0  0.57052  0.66039  0.10456  1.0000
  I   I41       1.0  0.77674  0.28839  0.82486  1.0000
  I   I42       1.0  0.37984  0.96057  0.20645  1.0000
  I   I43       1.0  0.69855  0.14334  0.54811  1.0000
  I   I44       1.0  0.72860  0.58268  0.11708  1.0000
  I   I45       1.0  0.44131  0.60131  0.55104  1.0000
  I   I46       1.0  0.33057  0.41417  0.99494  1.0000
  I   I47       1.0  0.00359  0.49058  0.16936  1.0000
  I   I48       1.0  0.42120  0.75678  0.44745  1.0000
  I   I49       1.0  0.50477  0.81043  0.68294  1.0000
  I   I50       1.0  0.32741  0.11869  0.32731  1.0000
  I   I51       1.0  0.34795  0.06586  0.40776  1.0000
  I   I52       1.0  0.00811  0.02085  0.01222  1.0000
  I   I53       1.0  0.16812  0.69797  0.66162  1.0000
  I   I54       1.0  0.42792  0.19045  0.08959  1.0000
  I   I55       1.0  0.83231  0.94566  0.08577  1.0000
  I   I56       1.0  0.45209  0.22350  0.38460  1.0000
  I   I57       1.0  0.23048  0.80831  0.31845  1.0000
  I   I58       1.0  0.78827  0.90827  0.91929  1.0000
  I   I59       1.0  0.73939  0.90144  0.87157  1.0000
  I   I60       1.0  0.09847  0.63567  0.43215  1.0000
  I   I61       1.0  0.26942  0.25635  0.47463  1.0000
  I   I62       1.0  0.21697  0.31479  0.55116  1.0000
  I   I63       1.0  0.11177  0.98531  0.53100  1.0000
  I   I64       1.0  0.59516  0.03314  0.82831  1.0000
  I   I65       1.0  0.14389  0.43243  0.74888  1.0000
  I   I66       1.0  0.49903  0.41497  0.32161  1.0000
  I   I67       1.0  0.67325  0.84717  0.40719  1.0000
  I   I68       1.0  0.45974  0.04207  0.83899  1.0000
  I   I69       1.0  0.03543  0.13320  0.73685  1.0000
  I   I70       1.0  0.64648  0.43831  0.64289  1.0000
  I   I71       1.0  0.61553  0.03676  0.27182  1.0000
  I   I72       1.0  0.12678  0.91301  0.29271  1.0000
  I   I73       1.0  0.18209  0.74624  0.26192  1.0000
  I   I74       1.0  0.38072  0.00496  0.92726  1.0000
  I   I75       1.0  0.34554  0.00515  0.08852  1.0000
  I   I76       1.0  0.64222  0.39680  0.02315  1.0000
  I   I77       1.0  0.69407  0.35384  0.20992  1.0000
  I   I78       1.0  0.78081  0.01437  0.49211  1.0000
  I   I79       1.0  0.40759  0.85663  0.58440  1.0000
  I   I80       1.0  0.82066  0.32057  0.65604  1.0000
  I   I81       1.0  0.64439  0.24081  0.24271  1.0000
  I   I82       1.0  0.54146  0.54575  0.96493  1.0000
  I   I83       1.0  0.73847  0.54672  0.58112  1.0000
  I   I84       1.0  0.96586  0.58508  0.61216  1.0000
  I   I85       1.0  0.04005  0.32146  0.31781  1.0000
  I   I86       1.0  0.40998  0.37927  0.22824  1.0000
  I   I87       1.0  0.95111  0.05840  0.50765  1.0000
  I   I88       1.0  0.37482  0.02699  0.19645  1.0000
  I   I89       1.0  0.56888  0.71358  0.21575  1.0000
  I   I90       1.0  0.82320  0.21539  0.86832  1.0000
  I   I91       1.0  0.49028  0.54139  0.58122  1.0000
  I   I92       1.0  0.71715  0.97394  0.81874  1.0000
  I   I93       1.0  0.77649  0.55882  0.18563  1.0000
  I   I94       1.0  0.47625  0.75259  0.56780  1.0000
  I   I95       1.0  0.29247  0.38643  0.05033  1.0000
  I   I96       1.0  0.00899  0.51869  0.95650  1.0000
  I   I97       1.0  0.96379  0.56301  0.13039  1.0000
  I   I98       1.0  0.52233  0.81954  0.81553  1.0000
  I   I99       1.0  0.26277  0.15885  0.40815  1.0000
  I   I100      1.0  0.97975  0.96152  0.01945  1.0000
  I   I101      1.0  0.94197  0.09686  0.06550  1.0000
  I   I102      1.0  0.11977  0.79259  0.69214  1.0000
  I   I103      1.0  0.81345  0.94358  0.94537  1.0000
  I   I104      1.0  0.89106  0.93301  0.02131  1.0000
  I   I105      1.0  0.28551  0.73128  0.36787  1.0000
  I   I106      1.0  0.05454  0.59191  0.35605  1.0000
  I   I107      1.0  0.83249  0.83003  0.95629  1.0000
  I   I108      1.0  0.08727  0.65656  0.53261  1.0000
  I   I109      1.0  0.54978  0.32307  0.96569  1.0000
  I   I110      1.0  0.20777  0.22917  0.65379  1.0000
  I   I111      1.0  0.03916  0.06464  0.46254  1.0000
  I   I112      1.0  0.14246  0.68307  0.85833  1.0000
  I   I113      1.0  0.17313  0.35800  0.70988  1.0000
  I   I114      1.0  0.44030  0.17628  0.63696  1.0000
  I   I115      1.0  0.70841  0.84013  0.31678  1.0000
  I   I116      1.0  0.60999  0.85800  0.47904  1.0000
  I   I117      1.0  0.03708  0.33104  0.79956  1.0000
  I   I118      1.0  0.64286  0.38445  0.56589  1.0000
  I   I119      1.0  0.60299  0.39457  0.81418  1.0000
  I   I120      1.0  0.07074  0.97189  0.25398  1.0000
  I   I121      1.0  0.08895  0.80283  0.25189  1.0000
  I   I122      1.0  0.69330  0.71586  0.24205  1.0000
  I   I123      1.0  0.41198  0.94039  0.88181  1.0000
  I   I124      1.0  0.85079  0.27764  0.33151  1.0000
  I   I125      1.0  0.62632  0.34229  0.02980  1.0000
  I   I126      1.0  0.76174  0.94074  0.38752  1.0000
  I   I127      1.0  0.38695  0.92624  0.62986  1.0000
  I   I128      1.0  0.84731  0.23960  0.63878  1.0000
  I   I129      1.0  0.71036  0.20905  0.32619  1.0000
  I   I130      1.0  0.96677  0.52285  0.59298  1.0000
  I   I131      1.0  0.49901  0.60025  0.88655  1.0000
  I   I132      1.0  0.80119  0.47016  0.60017  1.0000
  I   I133      1.0  0.86671  0.08537  0.48035  1.0000
  I   I134      1.0  0.46453  0.34874  0.08969  1.0000
  I   I135      1.0  0.46422  0.37972  0.19632  1.0000
  I   I136      1.0  0.87763  0.22875  0.92031  1.0000
  I   I137      1.0  0.56488  0.87915  0.08746  1.0000
  I   I138      1.0  0.61557  0.65783  0.19032  1.0000
  I   I139      1.0  0.44376  0.50589  0.39674  1.0000
  I   I140      1.0  0.73621  0.94897  0.67963  1.0000
  I   I141      1.0  0.74608  0.51822  0.17657  1.0000
  I   I142      1.0  0.45427  0.70869  0.61633  1.0000
  I   I143      1.0  0.31688  0.42473  0.12850  1.0000
  I   I144      1.0  0.06048  0.46319  0.19291  1.0000
  I   I145      1.0  0.54903  0.88426  0.73825  1.0000
  I   I146      1.0  0.33098  0.12450  0.47643  1.0000
  I   I147      1.0  0.99265  0.60888  0.09544  1.0000
  I   I148      1.0  0.93909  0.03293  0.03306  1.0000
  I   I149      1.0  0.10044  0.76685  0.58077  1.0000
  I   I150      1.0  0.43821  0.22812  0.04391  1.0000
  I   I151      1.0  0.86326  0.89391  0.02054  1.0000
  I   I152      1.0  0.47617  0.25203  0.43271  1.0000
  I   I153      1.0  0.28266  0.79377  0.39508  1.0000
  I   I154      1.0  0.61781  0.18840  0.49264  1.0000
  I   I155      1.0  0.16476  0.51323  0.73205  1.0000
  I   I156      1.0  0.10502  0.61178  0.30289  1.0000
  I   I157      1.0  0.61124  0.29965  0.76597  1.0000
  I   I158      1.0  0.06957  0.97544  0.59739  1.0000
  I   I159      1.0  0.58443  0.24928  0.87560  1.0000
  I   I160      1.0  0.11719  0.68585  0.96842  1.0000
  I   I161      1.0  0.43637  0.14281  0.73760  1.0000
  I   I162      1.0  0.10735  0.58379  0.83890  1.0000
  I   I163      1.0  0.62078  0.85095  0.35426  1.0000
  I   I164      1.0  0.01163  0.30140  0.90113  1.0000
  I   I165      1.0  0.08393  0.14775  0.84746  1.0000
  I   I166      1.0  0.62973  0.37587  0.66891  1.0000
  I   I167      1.0  0.70319  0.01049  0.22158  1.0000
  I   I168      1.0  0.92372  0.89762  0.32536  1.0000
  I   I169      1.0  0.76246  0.73448  0.18893  1.0000
  I   I170      1.0  0.72281  0.64467  0.23679  1.0000
  I   I171      1.0  0.18385  0.68223  0.14448  1.0000
  I   I172      1.0  0.78294  0.28818  0.27367  1.0000
  I   I173      1.0  0.78499  0.98226  0.37615  1.0000
  I   I174      1.0  0.76583  0.32548  0.16826  1.0000
  I   I175      1.0  0.88387  0.27457  0.66325  1.0000
  I   I176      1.0  0.58892  0.26442  0.17396  1.0000
  I   I177      1.0  0.38309  0.48233  0.97112  1.0000
  I   I178      1.0  0.45530  0.56973  0.90346  1.0000
  I   I179      1.0  0.75928  0.50753  0.71923  1.0000
  I   I180      1.0  0.89264  0.53180  0.55297  1.0000
  I   I181      1.0  0.02825  0.25932  0.32900  1.0000
  I   I182      1.0  0.44279  0.40740  0.30140  1.0000
  I   I183      1.0  0.97174  0.98328  0.52539  1.0000
  I   I184      1.0  0.55578  0.89393  0.22990  1.0000
  I   I185      1.0  0.62246  0.69380  0.29511  1.0000
  I   I186      1.0  0.83414  0.29477  0.84276  1.0000
  I   I187      1.0  0.69599  0.01618  0.69217  1.0000
  I   I188      1.0  0.84074  0.52965  0.23385  1.0000
  I   I189      1.0  0.44874  0.52198  0.50725  1.0000
  I   I190      1.0  0.26233  0.40936  0.16193  1.0000
  I   I191      1.0  0.14058  0.10035  0.60439  1.0000
  I   I192      1.0  0.48293  0.70531  0.50242  1.0000
  I   I193      1.0  0.51390  0.88011  0.63433  1.0000
  I   I194      1.0  0.14754  0.16581  0.57556  1.0000
  I   I195      1.0  0.01931  0.56905  0.20589  1.0000
  I   I196      1.0  0.02266  0.97137  0.94748  1.0000
  I   I197      1.0  0.73767  0.08355  0.55916  1.0000
  I   I198      1.0  0.37047  0.20566  0.02304  1.0000
  I   I199      1.0  0.87375  0.92663  0.91530  1.0000
  I   I200      1.0  0.41202  0.28228  0.44211  1.0000
  I   I201      1.0  0.27666  0.82686  0.28641  1.0000
  I   I202      1.0  0.77921  0.88531  0.01813  1.0000
  I   I203      1.0  0.09833  0.08000  0.75805  1.0000
  I   I204      1.0  0.02447  0.66433  0.51921  1.0000
  I   I205      1.0  0.28238  0.26226  0.58237  1.0000
  I   I206      1.0  0.08349  0.99628  0.43087  1.0000
  I   I207      1.0  0.59817  0.24449  0.74650  1.0000
  I   I208      1.0  0.60292  0.99204  0.69270  1.0000
  I   I209      1.0  0.39341  0.14872  0.64281  1.0000
  I   I210      1.0  0.05206  0.62315  0.90285  1.0000
  I   I211      1.0  0.68027  0.78798  0.38821  1.0000
  I   I212      1.0  0.50385  0.03565  0.94975  1.0000
  I   I213      1.0  0.05382  0.11121  0.84514  1.0000
  I   I214      1.0  0.59925  0.43639  0.72654  1.0000
  I   I215      1.0  0.64211  0.05108  0.19397  1.0000
  I   I216      1.0  0.92849  0.88679  0.19920  1.0000
  I   I217      1.0  0.71827  0.67609  0.14794  1.0000
  I   I218      1.0  0.33166  0.98915  0.96983  1.0000
  I   I219      1.0  0.20588  0.68035  0.25126  1.0000
  I   I220      1.0  0.57700  0.41227  0.07804  1.0000
  I   I221      1.0  0.82559  0.88659  0.40632  1.0000
  I   I222      1.0  0.82601  0.30520  0.19288  1.0000
  I   I223      1.0  0.75850  0.33770  0.63556  1.0000
  I   I224      1.0  0.62168  0.19844  0.23088  1.0000
  I   I225      1.0  0.35543  0.91914  0.51449  1.0000
  I   I226      1.0  0.51917  0.51170  0.89616  1.0000
  I   I227      1.0  0.79517  0.42741  0.67074  1.0000
  I   I228      1.0  0.92276  0.60322  0.70048  1.0000
  I   I229      1.0  0.03624  0.30850  0.20695  1.0000
  I   I230      1.0  0.45106  0.31618  0.19412  1.0000
  I   I231      1.0  0.91353  0.99459  0.62230  1.0000
  I   I232      1.0  0.30822  0.02351  0.17434  1.0000
  I   I233      1.0  0.56679  0.69717  0.32065  1.0000
  I   I234      1.0  0.85177  0.24646  0.78962  1.0000
  I   I235      1.0  0.67974  0.10061  0.50911  1.0000
  I   I236      1.0  0.76334  0.51724  0.04953  1.0000
  I   I237      1.0  0.49693  0.48791  0.36507  1.0000
  I   I238      1.0  0.31685  0.47818  0.02870  1.0000
  I   I239      1.0  0.07462  0.47050  0.93867  1.0000
  I   I240      1.0  0.45134  0.79581  0.46810  1.0000
  I   I241      1.0  0.49855  0.87091  0.73155  1.0000
  I   I242      1.0  0.29576  0.18123  0.44895  1.0000
  I   I243      1.0  0.94600  0.61808  0.19292  1.0000
  I   I244      1.0  0.96259  0.03307  0.92908  1.0000
  I   I245      1.0  0.19571  0.67545  0.53537  1.0000
  I   I246      1.0  0.42135  0.23339  0.94215  1.0000
  I   I247      1.0  0.83438  0.98331  0.98085  1.0000
  I   I248      1.0  0.52036  0.19231  0.34204  1.0000
  I   I249      1.0  0.31265  0.76018  0.28348  1.0000
  I   I250      1.0  0.73622  0.94442  0.99960  1.0000
  I   I251      1.0  0.22239  0.51333  0.68009  1.0000
  I   I252      1.0  0.11344  0.57979  0.42312  1.0000
  I   I253      1.0  0.20830  0.29277  0.66058  1.0000
  I   I254      1.0  0.02819  0.00366  0.47912  1.0000
  I   I255      1.0  0.55911  0.32829  0.84086  1.0000
  I   I256      1.0  0.10002  0.40801  0.70647  1.0000
  I   I257      1.0  0.37125  0.21696  0.69308  1.0000
  I   I258      1.0  0.11979  0.63496  0.82756  1.0000
  I   I259      1.0  0.61423  0.80630  0.43556  1.0000
  I   I260      1.0  0.96484  0.37018  0.84593  1.0000
  I   I261      1.0  0.12625  0.11688  0.76645  1.0000
  I   I262      1.0  0.65844  0.34420  0.77643  1.0000
  I   I263      1.0  0.61700  0.97837  0.31733  1.0000
  I   I264      1.0  0.99497  0.86320  0.27891  1.0000
  I   I265      1.0  0.76170  0.67910  0.28043  1.0000
  I   I266      1.0  0.36961  0.92947  0.93680  1.0000
  I   I267      1.0  0.21665  0.72514  0.16782  1.0000
  I   I268      1.0  0.64663  0.38948  0.14133  1.0000
  I   I269      1.0  0.82849  0.93760  0.46071  1.0000
  I   I270      1.0  0.81850  0.34068  0.29541  1.0000
  I   I271      1.0  0.88028  0.27868  0.55097  1.0000
  I   I272      1.0  0.67224  0.18411  0.35058  1.0000
  I   I273      1.0  0.34383  0.89759  0.63580  1.0000
  I   I274      1.0  0.49679  0.53591  0.99477  1.0000
  I   I275      1.0  0.74484  0.43341  0.60389  1.0000
  I   I276      1.0  0.91663  0.51367  0.65833  1.0000
  I   I277      1.0  0.97567  0.38675  0.29064  1.0000
  I   I278      1.0  0.40932  0.40611  0.13217  1.0000
  I   I279      1.0  0.89179  0.11707  0.50081  1.0000
  I   I280      1.0  0.52849  0.95081  0.13555  1.0000
  I   I281      1.0  0.57171  0.64636  0.25301  1.0000
  I   I282      1.0  0.81777  0.26789  0.93314  1.0000
  I   I283      1.0  0.69471  0.12370  0.67550  1.0000
  I   I284      1.0  0.81283  0.48608  0.19684  1.0000
  I   I285      1.0  0.45623  0.56155  0.42898  1.0000
  I   I286      1.0  0.21858  0.42798  0.06905  1.0000
  I   I287      1.0  0.04000  0.42534  0.11206  1.0000
  I   I288      1.0  0.51412  0.65611  0.60746  1.0000
  I   I289      1.0  0.57236  0.82319  0.75371  1.0000
  I   I290      1.0  0.08012  0.16596  0.56973  1.0000
  I   I291      1.0  0.34976  0.14449  0.38402  1.0000
  I   I292      1.0  0.91096  0.11035  0.95736  1.0000
  I   I293      1.0  0.17359  0.63902  0.59023  1.0000
  I   I294      1.0  0.40217  0.30363  0.01624  1.0000
  I   I295      1.0  0.88322  0.96063  0.12804  1.0000
  I   I296      1.0  0.53015  0.19271  0.48088  1.0000
  I   I297      1.0  0.22942  0.83571  0.20066  1.0000
  I   I298      1.0  0.65671  0.14205  0.42729  1.0000
  I   I299      1.0  0.81695  0.85785  0.86106  1.0000
  I   I300      1.0  0.04122  0.65491  0.39158  1.0000
  I   I301      1.0  0.61012  0.28209  0.88834  1.0000
  I   I302      1.0  0.20276  0.26443  0.52058  1.0000
  I   I303      1.0  0.10451  0.05453  0.49881  1.0000
  I   I304      1.0  0.08094  0.66902  0.89953  1.0000
  I   I305      1.0  0.59415  0.97313  0.82157  1.0000
  I   I306      1.0  0.38212  0.44857  0.25418  1.0000
  I   I307      1.0  0.74630  0.79433  0.40845  1.0000
  I   I308      1.0  0.48872  0.98096  0.91779  1.0000
  I   I309      1.0  0.99813  0.18534  0.83295  1.0000
  I   I310      1.0  0.66602  0.39689  0.78605  1.0000
  I   I311      1.0  0.63241  0.01687  0.39625  1.0000
  I   I312      1.0  0.12881  0.94729  0.18176  1.0000
  I   I313      1.0  0.13911  0.75366  0.17158  1.0000
  I   I314      1.0  0.78508  0.64447  0.19664  1.0000
  I   I315      1.0  0.33434  0.04809  0.00516  1.0000
  I   I316      1.0  0.77061  0.37813  0.21608  1.0000
  I   I317      1.0  0.61371  0.35531  0.14392  1.0000
  I   I318      1.0  0.83152  0.98815  0.36143  1.0000
  I   I319      1.0  0.35988  0.43747  0.90065  1.0000
  I   I320      1.0  0.79763  0.27592  0.69976  1.0000
  I   I321      1.0  0.55600  0.25314  0.26461  1.0000
  I   I322      1.0  0.57702  0.55960  0.86399  1.0000
  I   I323      1.0  0.74827  0.48869  0.55647  1.0000
  I   I324      1.0  0.97065  0.53252  0.71092  1.0000
  I   I325      1.0  0.98108  0.33023  0.33373  1.0000
  I   I326      1.0  0.44108  0.44321  0.21628  1.0000
  I   I327      1.0  0.91065  0.06545  0.61124  1.0000
  I   I328      1.0  0.34055  0.00455  0.27421  1.0000
  I   I329      1.0  0.52425  0.67945  0.17547  1.0000
  I   I330      1.0  0.88725  0.28878  0.89846  1.0000
  I   I331      1.0  0.51544  0.50383  0.46716  1.0000
  I   I332      1.0  0.69603  0.06538  0.60255  1.0000
  I   I333      1.0  0.80754  0.53177  0.08849  1.0000
  I   I334      1.0  0.49001  0.74197  0.42610  1.0000
  I   I335      1.0  0.25632  0.46715  0.10249  1.0000
  I   I336      1.0  0.00242  0.49701  0.06325  1.0000
  I   I337      1.0  0.56931  0.81543  0.64712  1.0000
  I   I338      1.0  0.11123  0.16564  0.67154  1.0000
  I   I339      1.0  0.28861  0.17989  0.31022  1.0000
  I   I340      1.0  0.97438  0.08219  0.96801  1.0000
  I   I341      1.0  0.07752  0.75792  0.67776  1.0000
  I   I342      1.0  0.35080  0.30073  0.98266  1.0000
  I   I343      1.0  0.82110  0.00148  0.11355  1.0000
  I   I344      1.0  0.39875  0.23518  0.47330  1.0000
  I   I345      1.0  0.29426  0.79051  0.17519  1.0000
  I   I346      1.0  0.64113  0.14196  0.59178  1.0000
  I   I347      1.0  0.70287  0.91522  0.98107  1.0000
  I   I348      1.0  0.05470  0.70863  0.47535  1.0000
  I   I349      1.0  0.52107  0.29784  0.88566  1.0000
  I   I350      1.0  0.15643  0.29011  0.61024  1.0000
  I   I351      1.0  0.05375  0.04660  0.56605  1.0000
  I   I352      1.0  0.16603  0.62126  0.92444  1.0000
  I   I353      1.0  0.12858  0.37442  0.80729  1.0000
  I   I354      1.0  0.52012  0.39732  0.20530  1.0000
  I   I355      1.0  0.73495  0.76447  0.31465  1.0000
  I   I356      1.0  0.01871  0.36388  0.91496  1.0000
  I   I357      1.0  0.04051  0.19992  0.77658  1.0000
  I   I358      1.0  0.95338  0.93319  0.24823  1.0000
  I   I359      1.0  0.68253  0.97207  0.36051  1.0000
  I   I360      1.0  0.10051  0.89592  0.20097  1.0000
  I   I361      1.0  0.15890  0.80518  0.24108  1.0000
  I   I362      1.0  0.79748  0.68115  0.12675  1.0000
  I   I363      1.0  0.39391  0.95462  0.02689  1.0000
  I   I364      1.0  0.75525  0.35242  0.30631  1.0000
  I   I365      1.0  0.67842  0.32122  0.11929  1.0000
  I   I366      1.0  0.81276  0.92111  0.31282  1.0000
  I   I367      1.0  0.42524  0.43393  0.91479  1.0000
  I   I368      1.0  0.81448  0.30264  0.55915  1.0000
  I   I369      1.0  0.61460  0.24052  0.33126  1.0000
  I   I370      1.0  0.52697  0.53967  0.80897  1.0000
  I   I371      1.0  0.71975  0.50178  0.65839  1.0000
  I   I372      1.0  0.86818  0.57394  0.64359  1.0000
  I   I373      1.0  0.02789  0.36724  0.20124  1.0000
  I   I374      1.0  0.40499  0.35100  0.11297  1.0000
  I   I375      1.0  0.97164  0.00809  0.62744  1.0000
  I   I376      1.0  0.50459  0.89950  0.15481  1.0000
  I   I377      1.0  0.62750  0.63024  0.32845  1.0000
  I   I378      1.0  0.84933  0.29781  0.99330  1.0000
  I   I379      1.0  0.50890  0.56970  0.48595  1.0000
  I   I380      1.0  0.76281  0.98221  0.75595  1.0000
  I   I381      1.0  0.86132  0.49116  0.13316  1.0000
  I   I382      1.0  0.51039  0.70424  0.65862  1.0000
  I   I383      1.0  0.27270  0.45036  0.00962  1.0000
  I   I384      1.0  0.06836  0.47968  0.07101  1.0000
