data_image0
_chemical_formula_structural       Ti96I384
_chemical_formula_sum              "Ti96 I384"
_cell_length_a       58.2203
_cell_length_b       58.7574
_cell_length_c       28.4491
_cell_angle_alpha    88.7757
_cell_angle_beta     88.7757
_cell_angle_gamma    62.1586

_space_group_name_H-M_alt    "P 1"
_space_group_IT_number       1

loop_
  _space_group_symop_operation_xyz
  'x, y, z'

loop_
  _atom_site_type_symbol
  _atom_site_label
  _atom_site_symmetry_multiplicity
  _atom_site_fract_x
  _atom_site_fract_y
  _atom_site_fract_z
  _atom_site_occupancy
  Ti  Ti1       1.0  0.87312  0.77961  0.93034  1.0000
  Ti  Ti2       1.0  0.73643  0.01559  0.04663  1.0000
  Ti  Ti3       1.0  0.75627  0.77532  0.58075  1.0000
  Ti  Ti4       1.0  0.43096  0.23804  0.27620  1.0000
  Ti  Ti5       1.0  0.14179  0.79018  0.16959  1.0000
  Ti  Ti6       1.0  0.16870  0.09435  0.10258  1.0000
  Ti  Ti7       1.0  0.97556  0.86758  0.82156  1.0000
  Ti  Ti8       1.0  0.26102  0.72704  0.40207  1.0000
  Ti  Ti9       1.0  0.71838  0.25370  0.18430  1.0000
  Ti  Ti10      1.0  0.55397  0.08515  0.31088  1.0000
  Ti  Ti11      1.0  0.17076  0.54636  0.63836  1.0000
  Ti  Ti12      1.0  0.61790  0.86610  0.02253  1.0000
  Ti  Ti13      1.0  0.39665  0.20824  0.89586  1.0000
  Ti  Ti14      1.0  0.11402  0.44145  0.19084  1.0000
  Ti  Ti15      1.0  0.23584  0.96061  0.83342  1.0000
  Ti  Ti16      1.0  0.97837  0.04234  0.41221  1.0000
  Ti  Ti17      1.0  0.19894  0.53234  0.09246  1.0000
  Ti  Ti18      1.0  0.96624  0.40810  0.20244  1.0000
  Ti  Ti19      1.0  0.72379  0.68332  0.28599  1.0000
  Ti  Ti20      1.0  0.72901  0.85962  0.27811  1.0000
  Ti  Ti21      1.0  0.22733  0.49992  0.44833  1.0000
  Ti  Ti22      1.0  0.45707  0.93607  0.47920  1.0000
  Ti  Ti23      1.0  0.48163  0.87571  0.92420  1.0000
  Ti  Ti24      1.0  0.55923  0.95817  0.60954  1.0000
  Ti  Ti25      1.0  0.20089  0.22413  0.61954  1.0000
  Ti  Ti26      1.0  0.23543  0.39337  0.97106  1.0000
  Ti  Ti27      1.0  0.45036  0.46647  0.48453  1.0000
  Ti  Ti28      1.0  0.61471  0.63698  0.58606  1.0000
  Ti  Ti29      1.0  0.90175  0.30082  0.48238  1.0000
  Ti  Ti30      1.0  0.77922  0.56499  0.64349  1.0000
  Ti  Ti31      1.0  0.75082  0.41816  0.15128  1.0000
  Ti  Ti32      1.0  0.90858  0.03027  0.20276  1.0000
  Ti  Ti33      1.0  0.14740  0.08192  0.58310  1.0000
  Ti  Ti34      1.0  0.93658  0.75316  0.46296  1.0000
  Ti  Ti35      1.0  0.63165  0.52972  0.92450  1.0000
  Ti  Ti36      1.0  0.05466  0.42923  0.45720  1.0000
  Ti  Ti37      1.0  0.00480  0.26689  0.99467  1.0000
  Ti  Ti38      1.0  0.64396  0.24706  0.45064  1.0000
  Ti  Ti39      1.0  0.38936  0.13811  0.20058  1.0000
  Ti  Ti40      1.0  0.25665  0.61728  0.13396  1.0000
  Ti  Ti41      1.0  0.61923  0.49467  0.43949  1.0000
  Ti  Ti42      1.0  0.35618  0.76640  0.24888  1.0000
  Ti  Ti43      1.0  0.07762  0.93770  0.72927  1.0000
  Ti  Ti44      1.0  0.85257  0.66985  0.00399  1.0000
  Ti  Ti45      1.0  0.80911  0.39932  0.78956  1.0000
  Ti  Ti46      1.0  0.76672  0.08456  0.41186  1.0000
  Ti  Ti47      1.0  0.47432  0.35190  0.80379  1.0000
  Ti  Ti48      1.0  0.44198  0.55254  0.20307  1.0000
  Ti  Ti49      1.0  0.92140  0.73493  0.79832  1.0000
  Ti  Ti50      1.0  0.69929  0.97799  0.91669  1.0000
  Ti  Ti51      1.0  0.75320  0.07467  0.03436  1.0000
  Ti  Ti52      1.0  0.40449  0.29408  0.34130  1.0000
  Ti  Ti53      1.0  0.06713  0.80693  0.16792  1.0000
  Ti  Ti54      1.0  0.13105  0.13536  0.04089  1.0000
  Ti  Ti55      1.0  0.00267  0.81257  0.80436  1.0000
  Ti  Ti56      1.0  0.27245  0.67912  0.44691  1.0000
  Ti  Ti57      1.0  0.70576  0.30765  0.11184  1.0000
  Ti  Ti58      1.0  0.09723  0.96794  0.63317  1.0000
  Ti  Ti59      1.0  0.53021  0.12097  0.15378  1.0000
  Ti  Ti60      1.0  0.66515  0.81791  0.00459  1.0000
  Ti  Ti61      1.0  0.27937  0.95339  0.94537  1.0000
  Ti  Ti62      1.0  0.40040  0.15917  0.86562  1.0000
  Ti  Ti63      1.0  0.12145  0.37505  0.17237  1.0000
  Ti  Ti64      1.0  0.95045  0.47358  0.13885  1.0000
  Ti  Ti65      1.0  0.99225  0.97624  0.45710  1.0000
  Ti  Ti66      1.0  0.31061  0.48197  0.76681  1.0000
  Ti  Ti67      1.0  0.73826  0.64554  0.41147  1.0000
  Ti  Ti68      1.0  0.64997  0.92601  0.26954  1.0000
  Ti  Ti69      1.0  0.26732  0.45215  0.37558  1.0000
  Ti  Ti70      1.0  0.51004  0.93816  0.57537  1.0000
  Ti  Ti71      1.0  0.42976  0.88159  0.88878  1.0000
  Ti  Ti72      1.0  0.36840  0.77208  0.71098  1.0000
  Ti  Ti73      1.0  0.45084  0.50062  0.58046  1.0000
  Ti  Ti74      1.0  0.15788  0.23403  0.54814  1.0000
  Ti  Ti75      1.0  0.24885  0.35718  0.89633  1.0000
  Ti  Ti76      1.0  0.75166  0.58752  0.76922  1.0000
  Ti  Ti77      1.0  0.53925  0.69541  0.55147  1.0000
  Ti  Ti78      1.0  0.89928  0.35137  0.48960  1.0000
  Ti  Ti79      1.0  0.20168  0.04639  0.61447  1.0000
  Ti  Ti80      1.0  0.80330  0.40866  0.05704  1.0000
  Ti  Ti81      1.0  0.96090  0.03139  0.13192  1.0000
  Ti  Ti82      1.0  0.87673  0.78215  0.44024  1.0000
  Ti  Ti83      1.0  0.62894  0.47321  0.89379  1.0000
  Ti  Ti84      1.0  0.08203  0.39136  0.59154  1.0000
  Ti  Ti85      1.0  0.95336  0.23824  0.93972  1.0000
  Ti  Ti86      1.0  0.57574  0.30884  0.42563  1.0000
  Ti  Ti87      1.0  0.36548  0.15082  0.33506  1.0000
  Ti  Ti88      1.0  0.23843  0.59376  0.05428  1.0000
  Ti  Ti89      1.0  0.60568  0.48346  0.33460  1.0000
  Ti  Ti90      1.0  0.35146  0.72877  0.14732  1.0000
  Ti  Ti91      1.0  0.87220  0.35630  0.75863  1.0000
  Ti  Ti92      1.0  0.95181  0.05886  0.88501  1.0000
  Ti  Ti93      1.0  0.89199  0.63449  0.07232  1.0000
  Ti  Ti94      1.0  0.42311  0.53316  0.04980  1.0000
  Ti  Ti95      1.0  0.70654  0.09775  0.37214  1.0000
  Ti  Ti96      1.0  0.48825  0.39923  0.90145  1.0000
  I   I1        1.0  0.72750  0.94085  0.97805  1.0000
  I   I2        1.0  0.75384  0.03692  0.11131  1.0000
  I   I3        1.0  0.90234  0.77925  0.00493  1.0000
  I   I4        1.0  0.07411  0.75807  0.16979  1.0000
  I   I5        1.0  0.12878  0.08757  0.10703  1.0000
  I   I6        1.0  0.11055  0.12535  0.96650  1.0000
  I   I7        1.0  0.26239  0.63931  0.46126  1.0000
  I   I8        1.0  0.21701  0.71845  0.40306  1.0000
  I   I9        1.0  0.73990  0.24834  0.26276  1.0000
  I   I10       1.0  0.56986  0.09428  0.21575  1.0000
  I   I11       1.0  0.12320  0.56905  0.67540  1.0000
  I   I12       1.0  0.17090  0.74282  0.13831  1.0000
  I   I13       1.0  0.42396  0.16676  0.96015  1.0000
  I   I14       1.0  0.14169  0.37203  0.08106  1.0000
  I   I15       1.0  0.19496  0.99830  0.87026  1.0000
  I   I16       1.0  0.97240  0.02146  0.51523  1.0000
  I   I17       1.0  0.35684  0.45123  0.73384  1.0000
  I   I18       1.0  0.94997  0.48299  0.04479  1.0000
  I   I19       1.0  0.64859  0.96060  0.21166  1.0000
  I   I20       1.0  0.23519  0.52440  0.51599  1.0000
  I   I21       1.0  0.25906  0.41395  0.36506  1.0000
  I   I22       1.0  0.45884  0.89754  0.83608  1.0000
  I   I23       1.0  0.52905  0.85489  0.88517  1.0000
  I   I24       1.0  0.50298  0.98677  0.58081  1.0000
  I   I25       1.0  0.14344  0.24796  0.63768  1.0000
  I   I26       1.0  0.23058  0.43727  0.98786  1.0000
  I   I27       1.0  0.41472  0.49939  0.43026  1.0000
  I   I28       1.0  0.59455  0.67230  0.51580  1.0000
  I   I29       1.0  0.87564  0.27915  0.44268  1.0000
  I   I30       1.0  0.75436  0.54500  0.59520  1.0000
  I   I31       1.0  0.80704  0.43960  0.00041  1.0000
  I   I32       1.0  0.99958  0.99241  0.08854  1.0000
  I   I33       1.0  0.20891  0.04810  0.52385  1.0000
  I   I34       1.0  0.62697  0.57394  0.89979  1.0000
  I   I35       1.0  0.05686  0.42556  0.66037  1.0000
  I   I36       1.0  0.87188  0.83256  0.42660  1.0000
  I   I37       1.0  0.00578  0.22025  0.96254  1.0000
  I   I38       1.0  0.40308  0.15640  0.27620  1.0000
  I   I39       1.0  0.94774  0.19900  0.97114  1.0000
  I   I40       1.0  0.58517  0.47148  0.43628  1.0000
  I   I41       1.0  0.30833  0.80177  0.27195  1.0000
  I   I42       1.0  0.28941  0.57604  0.01925  1.0000
  I   I43       1.0  0.06874  0.93499  0.63188  1.0000
  I   I44       1.0  0.88231  0.60093  0.11952  1.0000
  I   I45       1.0  0.84443  0.41417  0.74773  1.0000
  I   I46       1.0  0.81630  0.04794  0.38528  1.0000
  I   I47       1.0  0.42687  0.36122  0.78891  1.0000
  I   I48       1.0  0.39987  0.55836  0.15909  1.0000
  I   I49       1.0  0.84743  0.76465  0.98494  1.0000
  I   I50       1.0  0.73486  0.99755  0.95647  1.0000
  I   I51       1.0  0.71059  0.09134  0.98873  1.0000
  I   I52       1.0  0.41363  0.22499  0.35693  1.0000
  I   I53       1.0  0.10172  0.79806  0.23584  1.0000
  I   I54       1.0  0.12512  0.18582  0.04353  1.0000
  I   I55       1.0  0.99823  0.89620  0.85266  1.0000
  I   I56       1.0  0.26503  0.74407  0.31670  1.0000
  I   I57       1.0  0.67691  0.30574  0.19045  1.0000
  I   I58       1.0  0.51264  0.09738  0.24440  1.0000
  I   I59       1.0  0.51989  0.10167  0.38091  1.0000
  I   I60       1.0  0.64267  0.78937  0.98445  1.0000
  I   I61       1.0  0.44295  0.10803  0.87785  1.0000
  I   I62       1.0  0.35519  0.17340  0.91421  1.0000
  I   I63       1.0  0.11265  0.39830  0.25109  1.0000
  I   I64       1.0  0.98237  0.07913  0.45055  1.0000
  I   I65       1.0  0.97034  0.99014  0.37331  1.0000
  I   I66       1.0  0.29515  0.45768  0.82628  1.0000
  I   I67       1.0  0.72783  0.67169  0.48583  1.0000
  I   I68       1.0  0.73135  0.81676  0.30310  1.0000
  I   I69       1.0  0.28570  0.45485  0.45866  1.0000
  I   I70       1.0  0.49870  0.90320  0.53448  1.0000
  I   I71       1.0  0.41144  0.88148  0.97448  1.0000
  I   I72       1.0  0.33244  0.76202  0.75261  1.0000
  I   I73       1.0  0.47497  0.50793  0.49918  1.0000
  I   I74       1.0  0.26778  0.32781  0.97506  1.0000
  I   I75       1.0  0.22759  0.40596  0.86097  1.0000
  I   I76       1.0  0.63115  0.60090  0.65347  1.0000
  I   I77       1.0  0.60681  0.67032  0.65733  1.0000
  I   I78       1.0  0.92503  0.37275  0.44164  1.0000
  I   I79       1.0  0.24746  0.04168  0.63557  1.0000
  I   I80       1.0  0.72969  0.39563  0.20660  1.0000
  I   I81       1.0  0.91031  0.98464  0.21407  1.0000
  I   I82       1.0  0.91760  0.77423  0.37730  1.0000
  I   I83       1.0  0.60018  0.54335  0.99788  1.0000
  I   I84       1.0  0.08866  0.37565  0.50301  1.0000
  I   I85       1.0  0.90109  0.26406  0.96312  1.0000
  I   I86       1.0  0.56154  0.34273  0.49446  1.0000
  I   I87       1.0  0.43106  0.12880  0.15115  1.0000
  I   I88       1.0  0.24580  0.64371  0.04580  1.0000
  I   I89       1.0  0.58506  0.48905  0.25291  1.0000
  I   I90       1.0  0.36584  0.77662  0.33236  1.0000
  I   I91       1.0  0.88509  0.36960  0.84535  1.0000
  I   I92       1.0  0.95101  0.09605  0.94070  1.0000
  I   I93       1.0  0.91555  0.62081  0.98237  1.0000
  I   I94       1.0  0.41575  0.57509  0.28344  1.0000
  I   I95       1.0  0.67881  0.07664  0.41111  1.0000
  I   I96       1.0  0.45269  0.43899  0.93724  1.0000
  I   I97       1.0  0.71011  0.78185  0.58895  1.0000
  I   I98       1.0  0.87188  0.75858  0.84330  1.0000
  I   I99       1.0  0.77850  0.02517  0.99694  1.0000
  I   I100      1.0  0.47514  0.19994  0.27302  1.0000
  I   I101      1.0  0.35936  0.30959  0.29405  1.0000
  I   I102      1.0  0.10658  0.79135  0.10260  1.0000
  I   I103      1.0  0.99278  0.77384  0.78501  1.0000
  I   I104      1.0  0.97877  0.89147  0.74671  1.0000
  I   I105      1.0  0.66618  0.35160  0.08037  1.0000
  I   I106      1.0  0.57334  0.86303  0.05614  1.0000
  I   I107      1.0  0.56830  0.03630  0.30778  1.0000
  I   I108      1.0  0.69879  0.77718  0.04723  1.0000
  I   I109      1.0  0.29231  0.93021  0.85797  1.0000
  I   I110      1.0  0.38873  0.13920  0.79381  1.0000
  I   I111      1.0  0.09053  0.42380  0.13764  1.0000
  I   I112      1.0  0.91793  0.44958  0.12740  1.0000
  I   I113      1.0  0.03094  0.99779  0.43226  1.0000
  I   I114      1.0  0.19914  0.51327  0.00470  1.0000
  I   I115      1.0  0.73855  0.63672  0.25788  1.0000
  I   I116      1.0  0.71687  0.61673  0.43108  1.0000
  I   I117      1.0  0.61238  0.91922  0.24060  1.0000
  I   I118      1.0  0.49936  0.95517  0.46861  1.0000
  I   I119      1.0  0.42486  0.98680  0.45078  1.0000
  I   I120      1.0  0.33835  0.81126  0.65831  1.0000
  I   I121      1.0  0.48369  0.43878  0.42505  1.0000
  I   I122      1.0  0.19619  0.21428  0.48266  1.0000
  I   I123      1.0  0.28374  0.38165  0.98636  1.0000
  I   I124      1.0  0.73375  0.61049  0.66526  1.0000
  I   I125      1.0  0.51853  0.72652  0.47348  1.0000
  I   I126      1.0  0.87385  0.39175  0.53986  1.0000
  I   I127      1.0  0.10178  0.12484  0.61483  1.0000
  I   I128      1.0  0.70313  0.45973  0.17320  1.0000
  I   I129      1.0  0.96187  0.01381  0.21992  1.0000
  I   I130      1.0  0.02245  0.40996  0.43638  1.0000
  I   I131      1.0  0.95332  0.78560  0.48450  1.0000
  I   I132      1.0  0.66330  0.43669  0.83766  1.0000
  I   I133      1.0  0.37920  0.10751  0.14411  1.0000
  I   I134      1.0  0.58897  0.26914  0.48352  1.0000
  I   I135      1.0  0.65480  0.20936  0.50598  1.0000
  I   I136      1.0  0.35972  0.80220  0.19061  1.0000
  I   I137      1.0  0.20473  0.62406  0.11406  1.0000
  I   I138      1.0  0.64096  0.52469  0.44675  1.0000
  I   I139      1.0  0.81877  0.36119  0.85002  1.0000
  I   I140      1.0  0.92673  0.03419  0.91909  1.0000
  I   I141      1.0  0.84047  0.67120  0.09485  1.0000
  I   I142      1.0  0.46204  0.54078  0.08681  1.0000
  I   I143      1.0  0.75342  0.10265  0.32306  1.0000
  I   I144      1.0  0.49615  0.30199  0.80189  1.0000
  I   I145      1.0  0.92001  0.76729  0.86474  1.0000
  I   I146      1.0  0.69234  0.03211  0.09031  1.0000
  I   I147      1.0  0.77497  0.72629  0.56993  1.0000
  I   I148      1.0  0.37519  0.30650  0.41864  1.0000
  I   I149      1.0  0.03138  0.85315  0.13972  1.0000
  I   I150      1.0  0.17974  0.08770  0.19255  1.0000
  I   I151      1.0  0.04446  0.80443  0.84890  1.0000
  I   I152      1.0  0.24818  0.70668  0.52588  1.0000
  I   I153      1.0  0.76445  0.21873  0.15398  1.0000
  I   I154      1.0  0.10591  0.97148  0.73067  1.0000
  I   I155      1.0  0.20014  0.50829  0.69092  1.0000
  I   I156      1.0  0.59849  0.91657  0.00912  1.0000
  I   I157      1.0  0.32349  0.93068  0.98999  1.0000
  I   I158      1.0  0.09658  0.34954  0.18161  1.0000
  I   I159      1.0  0.24084  0.98119  0.00106  1.0000
  I   I160      1.0  0.91415  0.51960  0.16616  1.0000
  I   I161      1.0  0.16217  0.51691  0.10942  1.0000
  I   I162      1.0  0.96897  0.37687  0.13715  1.0000
  I   I163      1.0  0.69375  0.68088  0.36892  1.0000
  I   I164      1.0  0.75350  0.87596  0.33712  1.0000
  I   I165      1.0  0.24825  0.50860  0.35951  1.0000
  I   I166      1.0  0.46486  0.95231  0.61529  1.0000
  I   I167      1.0  0.49434  0.85133  0.01280  1.0000
  I   I168      1.0  0.60774  0.93645  0.57971  1.0000
  I   I169      1.0  0.24723  0.21869  0.59216  1.0000
  I   I170      1.0  0.21753  0.17586  0.63708  1.0000
  I   I171      1.0  0.48935  0.44632  0.58615  1.0000
  I   I172      1.0  0.76178  0.60099  0.84905  1.0000
  I   I173      1.0  0.86511  0.32916  0.55531  1.0000
  I   I174      1.0  0.82642  0.52246  0.63503  1.0000
  I   I175      1.0  0.84474  0.39151  0.11379  1.0000
  I   I176      1.0  0.92727  0.01987  0.08594  1.0000
  I   I177      1.0  0.18110  0.10535  0.61001  1.0000
  I   I178      1.0  0.92604  0.75355  0.55493  1.0000
  I   I179      1.0  0.67418  0.52268  0.96600  1.0000
  I   I180      1.0  0.08705  0.41311  0.38956  1.0000
  I   I181      1.0  0.99581  0.31281  0.00228  1.0000
  I   I182      1.0  0.53019  0.32788  0.39386  1.0000
  I   I183      1.0  0.34638  0.17981  0.17447  1.0000
  I   I184      1.0  0.24875  0.63687  0.21670  1.0000
  I   I185      1.0  0.66483  0.44699  0.42417  1.0000
  I   I186      1.0  0.30949  0.73158  0.10966  1.0000
  I   I187      1.0  0.92957  0.07896  0.80501  1.0000
  I   I188      1.0  0.86243  0.62146  0.99421  1.0000
  I   I189      1.0  0.82966  0.36505  0.71172  1.0000
  I   I190      1.0  0.74497  0.07865  0.49487  1.0000
  I   I191      1.0  0.51040  0.42582  0.85825  1.0000
  I   I192      1.0  0.42241  0.49462  0.08448  1.0000
  I   I193      1.0  0.90151  0.72085  0.72827  1.0000
  I   I194      1.0  0.68354  0.96471  0.84458  1.0000
  I   I195      1.0  0.75609  0.80049  0.50724  1.0000
  I   I196      1.0  0.42187  0.28096  0.23686  1.0000
  I   I197      1.0  0.14026  0.92126  0.65911  1.0000
  I   I198      1.0  0.08818  0.15504  0.09527  1.0000
  I   I199      1.0  0.93336  0.89851  0.85316  1.0000
  I   I200      1.0  0.31975  0.64545  0.49105  1.0000
  I   I201      1.0  0.69417  0.22717  0.16743  1.0000
  I   I202      1.0  0.55425  0.14022  0.09960  1.0000
  I   I203      1.0  0.16071  0.52435  0.56961  1.0000
  I   I204      1.0  0.69243  0.81442  0.92722  1.0000
  I   I205      1.0  0.40835  0.24382  0.86762  1.0000
  I   I206      1.0  0.16412  0.40931  0.20402  1.0000
  I   I207      1.0  0.29119  0.99074  0.93436  1.0000
  I   I208      1.0  0.99583  0.05032  0.33378  1.0000
  I   I209      1.0  0.22094  0.51771  0.17975  1.0000
  I   I210      1.0  0.93467  0.39859  0.25660  1.0000
  I   I211      1.0  0.75667  0.67913  0.36215  1.0000
  I   I212      1.0  0.76116  0.85429  0.20916  1.0000
  I   I213      1.0  0.22213  0.47072  0.51223  1.0000
  I   I214      1.0  0.41614  0.92999  0.50749  1.0000
  I   I215      1.0  0.38716  0.92442  0.86182  1.0000
  I   I216      1.0  0.55937  0.00139  0.61660  1.0000
  I   I217      1.0  0.17708  0.26950  0.56312  1.0000
  I   I218      1.0  0.22054  0.37961  0.05329  1.0000
  I   I219      1.0  0.40998  0.48748  0.56252  1.0000
  I   I220      1.0  0.49161  0.70509  0.58003  1.0000
  I   I221      1.0  0.86002  0.34582  0.43651  1.0000
  I   I222      1.0  0.78461  0.59244  0.56278  1.0000
  I   I223      1.0  0.80127  0.37008  0.15131  1.0000
  I   I224      1.0  0.85982  0.05565  0.17593  1.0000
  I   I225      1.0  0.13731  0.10371  0.50461  1.0000
  I   I226      1.0  0.89740  0.73335  0.45202  1.0000
  I   I227      1.0  0.65785  0.49604  0.85451  1.0000
  I   I228      1.0  0.13281  0.36921  0.60602  1.0000
  I   I229      1.0  0.05482  0.24863  0.98285  1.0000
  I   I230      1.0  0.64510  0.28712  0.48899  1.0000
  I   I231      1.0  0.32432  0.19147  0.29958  1.0000
  I   I232      1.0  0.30445  0.60482  0.12769  1.0000
  I   I233      1.0  0.60718  0.50020  0.52796  1.0000
  I   I234      1.0  0.37121  0.67634  0.16435  1.0000
  I   I235      1.0  0.06481  0.89955  0.73996  1.0000
  I   I236      1.0  0.80133  0.69064  0.98202  1.0000
  I   I237      1.0  0.79286  0.43120  0.85737  1.0000
  I   I238      1.0  0.75572  0.04731  0.36615  1.0000
  I   I239      1.0  0.45643  0.37490  0.90204  1.0000
  I   I240      1.0  0.47401  0.50493  0.21290  1.0000
  I   I241      1.0  0.84175  0.82910  0.91462  1.0000
  I   I242      1.0  0.76868  0.97115  0.09239  1.0000
  I   I243      1.0  0.76920  0.78923  0.66088  1.0000
  I   I244      1.0  0.39405  0.22922  0.22504  1.0000
  I   I245      1.0  0.13797  0.83342  0.14175  1.0000
  I   I246      1.0  0.19891  0.04337  0.09271  1.0000
  I   I247      1.0  0.95088  0.84076  0.77259  1.0000
  I   I248      1.0  0.23401  0.77770  0.41903  1.0000
  I   I249      1.0  0.71143  0.25946  0.07928  1.0000
  I   I250      1.0  0.59627  0.08222  0.34240  1.0000
  I   I251      1.0  0.19623  0.57196  0.63548  1.0000
  I   I252      1.0  0.61743  0.85797  0.92927  1.0000
  I   I253      1.0  0.36329  0.23856  0.96252  1.0000
  I   I254      1.0  0.12263  0.47432  0.14424  1.0000
  I   I255      1.0  0.23777  0.93917  0.92412  1.0000
  I   I256      1.0  0.94593  0.97769  0.47034  1.0000
  I   I257      1.0  0.17056  0.58134  0.09265  1.0000
  I   I258      1.0  0.99994  0.45793  0.14749  1.0000
  I   I259      1.0  0.67858  0.70740  0.24544  1.0000
  I   I260      1.0  0.67405  0.88221  0.32921  1.0000
  I   I261      1.0  0.17770  0.54078  0.43054  1.0000
  I   I262      1.0  0.46713  0.90818  0.40323  1.0000
  I   I263      1.0  0.48541  0.91440  0.96347  1.0000
  I   I264      1.0  0.57347  0.94578  0.69793  1.0000
  I   I265      1.0  0.20347  0.24635  0.70089  1.0000
  I   I266      1.0  0.29552  0.34157  0.85007  1.0000
  I   I267      1.0  0.44136  0.42621  0.49547  1.0000
  I   I268      1.0  0.56183  0.64268  0.57721  1.0000
  I   I269      1.0  0.93578  0.25270  0.49210  1.0000
  I   I270      1.0  0.79676  0.58586  0.71034  1.0000
  I   I271      1.0  0.76360  0.45453  0.11327  1.0000
  I   I272      1.0  0.89956  0.04291  0.29100  1.0000
  I   I273      1.0  0.13883  0.04509  0.55435  1.0000
  I   I274      1.0  0.84382  0.79728  0.51427  1.0000
  I   I275      1.0  0.59119  0.52658  0.86605  1.0000
  I   I276      1.0  0.07984  0.43396  0.53572  1.0000
  I   I277      1.0  0.00171  0.25028  0.07646  1.0000
  I   I278      1.0  0.69141  0.22982  0.42358  1.0000
  I   I279      1.0  0.33645  0.13129  0.37912  1.0000
  I   I280      1.0  0.21358  0.59369  0.98206  1.0000
  I   I281      1.0  0.63990  0.50027  0.31121  1.0000
  I   I282      1.0  0.39292  0.72615  0.20248  1.0000
  I   I283      1.0  0.02965  0.97256  0.75483  1.0000
  I   I284      1.0  0.87022  0.66771  0.91119  1.0000
  I   I285      1.0  0.76163  0.41093  0.77784  1.0000
  I   I286      1.0  0.75823  0.12903  0.43528  1.0000
  I   I287      1.0  0.52086  0.36836  0.95991  1.0000
  I   I288      1.0  0.46433  0.58067  0.20174  1.0000
  I   I289      1.0  0.95933  0.73097  0.74686  1.0000
  I   I290      1.0  0.68252  0.02615  0.88140  1.0000
  I   I291      1.0  0.78297  0.09683  0.02147  1.0000
  I   I292      1.0  0.40896  0.33430  0.33230  1.0000
  I   I293      1.0  0.03058  0.81318  0.24213  1.0000
  I   I294      1.0  0.17695  0.09591  0.00584  1.0000
  I   I295      1.0  0.97255  0.82546  0.88454  1.0000
  I   I296      1.0  0.30546  0.72189  0.43921  1.0000
  I   I297      1.0  0.72710  0.31275  0.02863  1.0000
  I   I298      1.0  0.05781  0.01285  0.62998  1.0000
  I   I299      1.0  0.48588  0.15986  0.14761  1.0000
  I   I300      1.0  0.66464  0.86778  0.01463  1.0000
  I   I301      1.0  0.24116  0.98426  0.75858  1.0000
  I   I302      1.0  0.36348  0.20899  0.83884  1.0000
  I   I303      1.0  0.08811  0.47289  0.26580  1.0000
  I   I304      1.0  0.00453  0.36946  0.24211  1.0000
  I   I305      1.0  0.93381  0.06491  0.37422  1.0000
  I   I306      1.0  0.28731  0.49015  0.68794  1.0000
  I   I307      1.0  0.74700  0.70089  0.23162  1.0000
  I   I308      1.0  0.69018  0.87869  0.20936  1.0000
  I   I309      1.0  0.21385  0.47312  0.36243  1.0000
  I   I310      1.0  0.53728  0.91501  0.65014  1.0000
  I   I311      1.0  0.47789  0.83107  0.90044  1.0000
  I   I312      1.0  0.38984  0.78898  0.76887  1.0000
  I   I313      1.0  0.47737  0.50500  0.65017  1.0000
  I   I314      1.0  0.12666  0.27405  0.49917  1.0000
  I   I315      1.0  0.19759  0.38077  0.93782  1.0000
  I   I316      1.0  0.75906  0.54178  0.77390  1.0000
  I   I317      1.0  0.54287  0.73576  0.57408  1.0000
  I   I318      1.0  0.92772  0.31294  0.41139  1.0000
  I   I319      1.0  0.16666  0.06560  0.67988  1.0000
  I   I320      1.0  0.74602  0.40180  0.07156  1.0000
  I   I321      1.0  0.91753  0.07580  0.17360  1.0000
  I   I322      1.0  0.84162  0.78171  0.37721  1.0000
  I   I323      1.0  0.58695  0.47012  0.89777  1.0000
  I   I324      1.0  0.06576  0.35710  0.61108  1.0000
  I   I325      1.0  0.94413  0.24083  0.85302  1.0000
  I   I326      1.0  0.62142  0.25682  0.36893  1.0000
  I   I327      1.0  0.35824  0.17714  0.41128  1.0000
  I   I328      1.0  0.24422  0.54516  0.07118  1.0000
  I   I329      1.0  0.57207  0.52625  0.38345  1.0000
  I   I330      1.0  0.32664  0.73368  0.24036  1.0000
  I   I331      1.0  0.90605  0.34864  0.69114  1.0000
  I   I332      1.0  0.11629  0.91290  0.79989  1.0000
  I   I333      1.0  0.92257  0.63572  0.13581  1.0000
  I   I334      1.0  0.45401  0.51622  0.97548  1.0000
  I   I335      1.0  0.68847  0.10874  0.28699  1.0000
  I   I336      1.0  0.48786  0.35291  0.71589  1.0000
  I   I337      1.0  0.92587  0.69310  0.84789  1.0000
  I   I338      1.0  0.65653  0.99212  0.97025  1.0000
  I   I339      1.0  0.74164  0.10354  0.11193  1.0000
  I   I340      1.0  0.45289  0.25916  0.35260  1.0000
  I   I341      1.0  0.17272  0.79403  0.23579  1.0000
  I   I342      1.0  0.16064  0.14324  0.12370  1.0000
  I   I343      1.0  0.02265  0.81820  0.71743  1.0000
  I   I344      1.0  0.28166  0.67068  0.36135  1.0000
  I   I345      1.0  0.74186  0.30159  0.17031  1.0000
  I   I346      1.0  0.11794  0.96445  0.55175  1.0000
  I   I347      1.0  0.53135  0.09320  0.07307  1.0000
  I   I348      1.0  0.63963  0.83735  0.10196  1.0000
  I   I349      1.0  0.21344  0.93908  0.78604  1.0000
  I   I350      1.0  0.43485  0.17846  0.82374  1.0000
  I   I351      1.0  0.16581  0.33786  0.21096  1.0000
  I   I352      1.0  0.95271  0.45703  0.23347  1.0000
  I   I353      1.0  0.02348  0.92647  0.45568  1.0000
  I   I354      1.0  0.30970  0.52364  0.80043  1.0000
  I   I355      1.0  0.78843  0.60559  0.39751  1.0000
  I   I356      1.0  0.62466  0.94937  0.34886  1.0000
  I   I357      1.0  0.31331  0.42616  0.33599  1.0000
  I   I358      1.0  0.56090  0.92562  0.53569  1.0000
  I   I359      1.0  0.41116  0.85545  0.84766  1.0000
  I   I360      1.0  0.40393  0.73547  0.66128  1.0000
  I   I361      1.0  0.41776  0.55328  0.57996  1.0000
  I   I362      1.0  0.12981  0.20828  0.52688  1.0000
  I   I363      1.0  0.23468  0.33138  0.84432  1.0000
  I   I364      1.0  0.69917  0.61046  0.77844  1.0000
  I   I365      1.0  0.65925  0.62640  0.55454  1.0000
  I   I366      1.0  0.93751  0.31090  0.53296  1.0000
  I   I367      1.0  0.20235  0.00247  0.63495  1.0000
  I   I368      1.0  0.80918  0.37478  0.99251  1.0000
  I   I369      1.0  0.98430  0.06075  0.13177  1.0000
  I   I370      1.0  0.98062  0.70745  0.46418  1.0000
  I   I371      1.0  0.64700  0.46429  0.98033  1.0000
  I   I372      1.0  0.02505  0.47766  0.47076  1.0000
  I   I373      1.0  0.96776  0.28166  0.93344  1.0000
  I   I374      1.0  0.59421  0.33600  0.37801  1.0000
  I   I375      1.0  0.38195  0.10777  0.27842  1.0000
  I   I376      1.0  0.26094  0.57040  0.17377  1.0000
  I   I377      1.0  0.63268  0.43496  0.32027  1.0000
  I   I378      1.0  0.35377  0.76058  0.08947  1.0000
  I   I379      1.0  0.89670  0.30742  0.78612  1.0000
  I   I380      1.0  0.99620  0.03268  0.84052  1.0000
  I   I381      1.0  0.88139  0.69054  0.04611  1.0000
  I   I382      1.0  0.38730  0.56425  0.99502  1.0000
  I   I383      1.0  0.68358  0.14039  0.41434  1.0000
  I   I384      1.0  0.51749  0.35289  0.83764  1.0000
