data_image0
_chemical_formula_structural       Ti96I384
_chemical_formula_sum              "Ti96 I384"
_cell_length_a       54.8201
_cell_length_b       55.0897
_cell_length_c       26.5704
_cell_angle_alpha    88.7757
_cell_angle_beta     88.7757
_cell_angle_gamma    62.1586

_space_group_name_H-M_alt    "P 1"
_space_group_IT_number       1

loop_
  _space_group_symop_operation_xyz
  'x, y, z'

loop_
  _atom_site_type_symbol
  _atom_site_label
  _atom_site_symmetry_multiplicity
  _atom_site_fract_x
  _atom_site_fract_y
  _atom_site_fract_z
  _atom_site_occupancy
  Ti  Ti1       1.0  0.71449  0.64910  0.21191  1.0000
  Ti  Ti2       1.0  0.85878  0.11702  0.22625  1.0000
  Ti  Ti3       1.0  0.60314  0.78115  0.23010  1.0000
  Ti  Ti4       1.0  0.29422  0.10250  0.60717  1.0000
  Ti  Ti5       1.0  0.97476  0.26022  0.30383  1.0000
  Ti  Ti6       1.0  0.15544  0.22833  0.84815  1.0000
  Ti  Ti7       1.0  0.95928  0.90166  0.34014  1.0000
  Ti  Ti8       1.0  0.02185  0.11697  0.65026  1.0000
  Ti  Ti9       1.0  0.89049  0.87407  0.78349  1.0000
  Ti  Ti10      1.0  0.42963  0.82510  0.06323  1.0000
  Ti  Ti11      1.0  0.01117  0.63187  0.10274  1.0000
  Ti  Ti12      1.0  0.95763  0.65753  0.27251  1.0000
  Ti  Ti13      1.0  0.37363  0.26192  0.49542  1.0000
  Ti  Ti14      1.0  0.28339  0.16537  0.35291  1.0000
  Ti  Ti15      1.0  0.26476  0.09599  0.03621  1.0000
  Ti  Ti16      1.0  0.17848  0.69780  0.88731  1.0000
  Ti  Ti17      1.0  0.24186  0.71784  0.13774  1.0000
  Ti  Ti18      1.0  0.17445  0.47083  0.06221  1.0000
  Ti  Ti19      1.0  0.65245  0.68516  0.57448  1.0000
  Ti  Ti20      1.0  0.78243  0.81436  0.84609  1.0000
  Ti  Ti21      1.0  0.27704  0.48597  0.42345  1.0000
  Ti  Ti22      1.0  0.53018  0.90415  0.53143  1.0000
  Ti  Ti23      1.0  0.74991  0.89604  0.52756  1.0000
  Ti  Ti24      1.0  0.43208  0.94928  0.67081  1.0000
  Ti  Ti25      1.0  0.34811  0.21256  0.89781  1.0000
  Ti  Ti26      1.0  0.25555  0.34612  0.78168  1.0000
  Ti  Ti27      1.0  0.37971  0.54538  0.74658  1.0000
  Ti  Ti28      1.0  0.52188  0.59639  0.77933  1.0000
  Ti  Ti29      1.0  0.65338  0.44405  0.75584  1.0000
  Ti  Ti30      1.0  0.78791  0.45157  0.61924  1.0000
  Ti  Ti31      1.0  0.72755  0.41236  0.13098  1.0000
  Ti  Ti32      1.0  0.77307  0.33622  0.54634  1.0000
  Ti  Ti33      1.0  0.97404  0.38718  0.02392  1.0000
  Ti  Ti34      1.0  0.03337  0.75719  0.03839  1.0000
  Ti  Ti35      1.0  0.69808  0.72628  0.97488  1.0000
  Ti  Ti36      1.0  0.94734  0.57235  0.77906  1.0000
  Ti  Ti37      1.0  0.61630  0.23070  0.23968  1.0000
  Ti  Ti38      1.0  0.46165  0.35474  0.37610  1.0000
  Ti  Ti39      1.0  0.54547  0.41970  0.07099  1.0000
  Ti  Ti40      1.0  0.14412  0.01198  0.30182  1.0000
  Ti  Ti41      1.0  0.64039  0.25921  0.62650  1.0000
  Ti  Ti42      1.0  0.38284  0.78190  0.64053  1.0000
  Ti  Ti43      1.0  0.80922  0.22963  0.94898  1.0000
  Ti  Ti44      1.0  0.93706  0.46012  0.45731  1.0000
  Ti  Ti45      1.0  0.02111  0.51513  0.44517  1.0000
  Ti  Ti46      1.0  0.66052  0.07377  0.36084  1.0000
  Ti  Ti47      1.0  0.59599  0.02778  0.15520  1.0000
  Ti  Ti48      1.0  0.40768  0.28732  0.78840  1.0000
  Ti  Ti49      1.0  0.66705  0.72272  0.29121  1.0000
  Ti  Ti50      1.0  0.83792  0.05910  0.15066  1.0000
  Ti  Ti51      1.0  0.94966  0.10175  0.26562  1.0000
  Ti  Ti52      1.0  0.25736  0.10008  0.47407  1.0000
  Ti  Ti53      1.0  0.00132  0.19520  0.24326  1.0000
  Ti  Ti54      1.0  0.06829  0.25392  0.88049  1.0000
  Ti  Ti55      1.0  0.01417  0.85061  0.34196  1.0000
  Ti  Ti56      1.0  0.01018  0.03709  0.61162  1.0000
  Ti  Ti57      1.0  0.88929  0.93673  0.70436  1.0000
  Ti  Ti58      1.0  0.37845  0.81197  0.16017  1.0000
  Ti  Ti59      1.0  0.47220  0.84376  0.90987  1.0000
  Ti  Ti60      1.0  0.92300  0.64156  0.15874  1.0000
  Ti  Ti61      1.0  0.26103  0.07991  0.14949  1.0000
  Ti  Ti62      1.0  0.40127  0.22353  0.41425  1.0000
  Ti  Ti63      1.0  0.36916  0.12255  0.29864  1.0000
  Ti  Ti64      1.0  0.19111  0.40149  0.11066  1.0000
  Ti  Ti65      1.0  0.19013  0.71937  0.02092  1.0000
  Ti  Ti66      1.0  0.14510  0.76803  0.61816  1.0000
  Ti  Ti67      1.0  0.59624  0.73786  0.62919  1.0000
  Ti  Ti68      1.0  0.78548  0.82297  0.99019  1.0000
  Ti  Ti69      1.0  0.24663  0.54653  0.42371  1.0000
  Ti  Ti70      1.0  0.48497  0.97316  0.58851  1.0000
  Ti  Ti71      1.0  0.81103  0.87206  0.39538  1.0000
  Ti  Ti72      1.0  0.70558  0.95564  0.62309  1.0000
  Ti  Ti73      1.0  0.35898  0.52565  0.87230  1.0000
  Ti  Ti74      1.0  0.27004  0.26730  0.83114  1.0000
  Ti  Ti75      1.0  0.19782  0.42426  0.71992  1.0000
  Ti  Ti76      1.0  0.82103  0.49656  0.71377  1.0000
  Ti  Ti77      1.0  0.48748  0.68658  0.81320  1.0000
  Ti  Ti78      1.0  0.72330  0.45617  0.74104  1.0000
  Ti  Ti79      1.0  0.90061  0.41793  0.04758  1.0000
  Ti  Ti80      1.0  0.80280  0.35842  0.09628  1.0000
  Ti  Ti81      1.0  0.81916  0.29004  0.64862  1.0000
  Ti  Ti82      1.0  0.94397  0.79144  0.10485  1.0000
  Ti  Ti83      1.0  0.67734  0.66715  0.90765  1.0000
  Ti  Ti84      1.0  0.87534  0.60768  0.75050  1.0000
  Ti  Ti85      1.0  0.66454  0.16968  0.15740  1.0000
  Ti  Ti86      1.0  0.50483  0.26558  0.32797  1.0000
  Ti  Ti87      1.0  0.46699  0.47988  0.08049  1.0000
  Ti  Ti88      1.0  0.15613  0.97796  0.46315  1.0000
  Ti  Ti89      1.0  0.66747  0.20876  0.72396  1.0000
  Ti  Ti90      1.0  0.31272  0.81223  0.72548  1.0000
  Ti  Ti91      1.0  0.07720  0.48790  0.55340  1.0000
  Ti  Ti92      1.0  0.74338  0.28768  0.92415  1.0000
  Ti  Ti93      1.0  0.99214  0.47424  0.33376  1.0000
  Ti  Ti94      1.0  0.48108  0.26383  0.75274  1.0000
  Ti  Ti95      1.0  0.68626  0.08767  0.44723  1.0000
  Ti  Ti96      1.0  0.57509  0.99065  0.09897  1.0000
  I   I1        1.0  0.81133  0.06848  0.07077  1.0000
  I   I2        1.0  0.86495  0.15749  0.19002  1.0000
  I   I3        1.0  0.67415  0.66400  0.30145  1.0000
  I   I4        1.0  0.99961  0.15801  0.30202  1.0000
  I   I5        1.0  0.06642  0.20877  0.90429  1.0000
  I   I6        1.0  0.12317  0.22327  0.94055  1.0000
  I   I7        1.0  0.97051  0.04925  0.67383  1.0000
  I   I8        1.0  0.06557  0.09688  0.59095  1.0000
  I   I9        1.0  0.86301  0.85842  0.72417  1.0000
  I   I10       1.0  0.46287  0.84058  0.10972  1.0000
  I   I11       1.0  0.96281  0.63764  0.05676  1.0000
  I   I12       1.0  0.39307  0.76242  0.19313  1.0000
  I   I13       1.0  0.36605  0.20958  0.46766  1.0000
  I   I14       1.0  0.38781  0.14779  0.23793  1.0000
  I   I15       1.0  0.29701  0.10571  0.11527  1.0000
  I   I16       1.0  0.17192  0.75035  0.92300  1.0000
  I   I17       1.0  0.17865  0.78917  0.62922  1.0000
  I   I18       1.0  0.24381  0.37199  0.11522  1.0000
  I   I19       1.0  0.74200  0.85522  0.04558  1.0000
  I   I20       1.0  0.29814  0.48357  0.33119  1.0000
  I   I21       1.0  0.21667  0.58956  0.47265  1.0000
  I   I22       1.0  0.80617  0.91612  0.35545  1.0000
  I   I23       1.0  0.80427  0.88104  0.50298  1.0000
  I   I24       1.0  0.47370  0.97368  0.69301  1.0000
  I   I25       1.0  0.26480  0.25381  0.92631  1.0000
  I   I26       1.0  0.21001  0.36588  0.69915  1.0000
  I   I27       1.0  0.41501  0.52101  0.87249  1.0000
  I   I28       1.0  0.52602  0.68975  0.76420  1.0000
  I   I29       1.0  0.70588  0.42658  0.80133  1.0000
  I   I30       1.0  0.82509  0.44448  0.70321  1.0000
  I   I31       1.0  0.68354  0.40440  0.13200  1.0000
  I   I32       1.0  0.80779  0.34590  0.61436  1.0000
  I   I33       1.0  0.97239  0.43232  0.06168  1.0000
  I   I34       1.0  0.72068  0.72378  0.88601  1.0000
  I   I35       1.0  0.92343  0.59220  0.68233  1.0000
  I   I36       1.0  0.89923  0.80249  0.04191  1.0000
  I   I37       1.0  0.61186  0.23691  0.33532  1.0000
  I   I38       1.0  0.42551  0.48119  0.12687  1.0000
  I   I39       1.0  0.70810  0.14378  0.20885  1.0000
  I   I40       1.0  0.71756  0.17385  0.74188  1.0000
  I   I41       1.0  0.30044  0.80228  0.81221  1.0000
  I   I42       1.0  0.10665  0.02264  0.49035  1.0000
  I   I43       1.0  0.77205  0.23251  0.88597  1.0000
  I   I44       1.0  0.93467  0.48126  0.35699  1.0000
  I   I45       1.0  0.01853  0.55102  0.37806  1.0000
  I   I46       1.0  0.60886  0.09538  0.31980  1.0000
  I   I47       1.0  0.63099  0.97562  0.11064  1.0000
  I   I48       1.0  0.43798  0.27238  0.68946  1.0000
  I   I49       1.0  0.68124  0.64706  0.15048  1.0000
  I   I50       1.0  0.84730  0.10699  0.12657  1.0000
  I   I51       1.0  0.95438  0.11451  0.35425  1.0000
  I   I52       1.0  0.20854  0.12241  0.44472  1.0000
  I   I53       1.0  0.02707  0.21579  0.31464  1.0000
  I   I54       1.0  0.06937  0.29167  0.93732  1.0000
  I   I55       1.0  0.96734  0.84056  0.36081  1.0000
  I   I56       1.0  0.98837  0.03051  0.53222  1.0000
  I   I57       1.0  0.92027  0.90455  0.79326  1.0000
  I   I58       1.0  0.43014  0.87234  0.97553  1.0000
  I   I59       1.0  0.45422  0.89160  0.87252  1.0000
  I   I60       1.0  0.89603  0.67134  0.23284  1.0000
  I   I61       1.0  0.42299  0.21817  0.51883  1.0000
  I   I62       1.0  0.45110  0.19252  0.39799  1.0000
  I   I63       1.0  0.27499  0.12449  0.38254  1.0000
  I   I64       1.0  0.18960  0.64736  0.87085  1.0000
  I   I65       1.0  0.21695  0.68516  0.10052  1.0000
  I   I66       1.0  0.11047  0.79749  0.54999  1.0000
  I   I67       1.0  0.54945  0.73908  0.61291  1.0000
  I   I68       1.0  0.76157  0.84369  0.75984  1.0000
  I   I69       1.0  0.24744  0.45901  0.38829  1.0000
  I   I70       1.0  0.49565  0.95347  0.49227  1.0000
  I   I71       1.0  0.77185  0.84044  0.55983  1.0000
  I   I72       1.0  0.66659  0.95548  0.68557  1.0000
  I   I73       1.0  0.42889  0.50345  0.71344  1.0000
  I   I74       1.0  0.27824  0.29004  0.73753  1.0000
  I   I75       1.0  0.21785  0.42225  0.62657  1.0000
  I   I76       1.0  0.57121  0.55867  0.80204  1.0000
  I   I77       1.0  0.48945  0.65174  0.73668  1.0000
  I   I78       1.0  0.73815  0.48682  0.67708  1.0000
  I   I79       1.0  0.87280  0.45513  0.12027  1.0000
  I   I80       1.0  0.79426  0.31202  0.09274  1.0000
  I   I81       1.0  0.82379  0.28640  0.53682  1.0000
  I   I82       1.0  0.05241  0.79040  0.99577  1.0000
  I   I83       1.0  0.73841  0.71838  0.03578  1.0000
  I   I84       1.0  0.90128  0.63061  0.80803  1.0000
  I   I85       1.0  0.62112  0.17920  0.24021  1.0000
  I   I86       1.0  0.45484  0.27319  0.30163  1.0000
  I   I87       1.0  0.49173  0.50430  0.11979  1.0000
  I   I88       1.0  0.09103  0.04312  0.28864  1.0000
  I   I89       1.0  0.59297  0.29598  0.65960  1.0000
  I   I90       1.0  0.40422  0.78370  0.72927  1.0000
  I   I91       1.0  0.06763  0.49220  0.64820  1.0000
  I   I92       1.0  0.84894  0.21409  0.88343  1.0000
  I   I93       1.0  0.03726  0.48001  0.34653  1.0000
  I   I94       1.0  0.50696  0.26955  0.83239  1.0000
  I   I95       1.0  0.69529  0.06225  0.53599  1.0000
  I   I96       1.0  0.52181  0.00343  0.07252  1.0000
  I   I97       1.0  0.57198  0.81495  0.29942  1.0000
  I   I98       1.0  0.74812  0.66013  0.15750  1.0000
  I   I99       1.0  0.92386  0.08583  0.18714  1.0000
  I   I100      1.0  0.28029  0.05220  0.42983  1.0000
  I   I101      1.0  0.27239  0.10191  0.69691  1.0000
  I   I102      1.0  0.92185  0.27009  0.30658  1.0000
  I   I103      1.0  0.04782  0.80773  0.29050  1.0000
  I   I104      1.0  0.99039  0.89879  0.41345  1.0000
  I   I105      1.0  0.85721  0.97029  0.63031  1.0000
  I   I106      1.0  0.01219  0.62933  0.27860  1.0000
  I   I107      1.0  0.46200  0.80386  0.96870  1.0000
  I   I108      1.0  0.88305  0.67607  0.10058  1.0000
  I   I109      1.0  0.31065  0.03812  0.16229  1.0000
  I   I110      1.0  0.37489  0.30434  0.54351  1.0000
  I   I111      1.0  0.27824  0.20134  0.41817  1.0000
  I   I112      1.0  0.22120  0.43034  0.02527  1.0000
  I   I113      1.0  0.15939  0.69556  0.00564  1.0000
  I   I114      1.0  0.28784  0.71830  0.13972  1.0000
  I   I115      1.0  0.61030  0.73729  0.52245  1.0000
  I   I116      1.0  0.59037  0.72362  0.72478  1.0000
  I   I117      1.0  0.75892  0.79833  0.93919  1.0000
  I   I118      1.0  0.48135  0.91771  0.60110  1.0000
  I   I119      1.0  0.50518  0.87371  0.49367  1.0000
  I   I120      1.0  0.75089  0.90229  0.63801  1.0000
  I   I121      1.0  0.36684  0.55393  0.65603  1.0000
  I   I122      1.0  0.31747  0.27028  0.85854  1.0000
  I   I123      1.0  0.27980  0.36097  0.71253  1.0000
  I   I124      1.0  0.79480  0.50216  0.63042  1.0000
  I   I125      1.0  0.50904  0.63753  0.86395  1.0000
  I   I126      1.0  0.68917  0.45136  0.66202  1.0000
  I   I127      1.0  0.88944  0.46108  0.98591  1.0000
  I   I128      1.0  0.82639  0.38195  0.15885  1.0000
  I   I129      1.0  0.73373  0.34614  0.61315  1.0000
  I   I130      1.0  0.96588  0.58947  0.84812  1.0000
  I   I131      1.0  0.97194  0.78534  0.01283  1.0000
  I   I132      1.0  0.70940  0.65525  0.82341  1.0000
  I   I133      1.0  0.43640  0.51850  0.01482  1.0000
  I   I134      1.0  0.53531  0.23808  0.23887  1.0000
  I   I135      1.0  0.43165  0.39909  0.32335  1.0000
  I   I136      1.0  0.40711  0.80140  0.58409  1.0000
  I   I137      1.0  0.17978  0.92531  0.48184  1.0000
  I   I138      1.0  0.62350  0.26004  0.52927  1.0000
  I   I139      1.0  0.07729  0.47766  0.44269  1.0000
  I   I140      1.0  0.71675  0.28547  0.84314  1.0000
  I   I141      1.0  0.99288  0.45118  0.43548  1.0000
  I   I142      1.0  0.42884  0.32318  0.80757  1.0000
  I   I143      1.0  0.66555  0.11948  0.35733  1.0000
  I   I144      1.0  0.58436  0.03823  0.05173  1.0000
  I   I145      1.0  0.60960  0.73525  0.29561  1.0000
  I   I146      1.0  0.81202  0.13840  0.27156  1.0000
  I   I147      1.0  0.61659  0.80942  0.16688  1.0000
  I   I148      1.0  0.27038  0.06852  0.57120  1.0000
  I   I149      1.0  0.95565  0.20719  0.18432  1.0000
  I   I150      1.0  0.14794  0.27731  0.86265  1.0000
  I   I151      1.0  0.96363  0.88222  0.25428  1.0000
  I   I152      1.0  0.04260  0.12407  0.73427  1.0000
  I   I153      1.0  0.91580  0.88359  0.66876  1.0000
  I   I154      1.0  0.38693  0.86146  0.11845  1.0000
  I   I155      1.0  0.03908  0.59171  0.16331  1.0000
  I   I156      1.0  0.95998  0.66416  0.16844  1.0000
  I   I157      1.0  0.24284  0.05202  0.09878  1.0000
  I   I158      1.0  0.31233  0.16163  0.26090  1.0000
  I   I159      1.0  0.23549  0.09260  0.96562  1.0000
  I   I160      1.0  0.14838  0.49876  0.98233  1.0000
  I   I161      1.0  0.16464  0.76498  0.06530  1.0000
  I   I162      1.0  0.14137  0.44513  0.10028  1.0000
  I   I163      1.0  0.62773  0.66069  0.53941  1.0000
  I   I164      1.0  0.76355  0.86134  0.90628  1.0000
  I   I165      1.0  0.31045  0.43819  0.46720  1.0000
  I   I166      1.0  0.54069  0.94139  0.61408  1.0000
  I   I167      1.0  0.74487  0.89219  0.42171  1.0000
  I   I168      1.0  0.39097  0.94294  0.63860  1.0000
  I   I169      1.0  0.33767  0.23956  0.98404  1.0000
  I   I170      1.0  0.23385  0.32172  0.85649  1.0000
  I   I171      1.0  0.39088  0.58608  0.75824  1.0000
  I   I172      1.0  0.86901  0.48432  0.67218  1.0000
  I   I173      1.0  0.63605  0.40596  0.75559  1.0000
  I   I174      1.0  0.77289  0.41631  0.68076  1.0000
  I   I175      1.0  0.76352  0.36741  0.17896  1.0000
  I   I176      1.0  0.80291  0.31384  0.73728  1.0000
  I   I177      1.0  0.98645  0.39276  0.92466  1.0000
  I   I178      1.0  0.99841  0.78252  0.12938  1.0000
  I   I179      1.0  0.70288  0.67360  0.99826  1.0000
  I   I180      1.0  0.92615  0.54232  0.82888  1.0000
  I   I181      1.0  0.66512  0.22125  0.19933  1.0000
  I   I182      1.0  0.50093  0.31810  0.29051  1.0000
  I   I183      1.0  0.57259  0.41424  0.97791  1.0000
  I   I184      1.0  0.16325  0.04326  0.26695  1.0000
  I   I185      1.0  0.67340  0.28013  0.59198  1.0000
  I   I186      1.0  0.26130  0.83665  0.69302  1.0000
  I   I187      1.0  0.75669  0.25522  0.01156  1.0000
  I   I188      1.0  0.94008  0.46601  0.55132  1.0000
  I   I189      1.0  0.96445  0.53135  0.44181  1.0000
  I   I190      1.0  0.65382  0.03903  0.42002  1.0000
  I   I191      1.0  0.61097  0.01516  0.24858  1.0000
  I   I192      1.0  0.38005  0.30382  0.87262  1.0000
  I   I193      1.0  0.74726  0.60937  0.27286  1.0000
  I   I194      1.0  0.85907  0.06460  0.24622  1.0000
  I   I195      1.0  0.65064  0.77766  0.26175  1.0000
  I   I196      1.0  0.30016  0.14779  0.62233  1.0000
  I   I197      1.0  0.97411  0.26036  0.40227  1.0000
  I   I198      1.0  0.19723  0.20357  0.89570  1.0000
  I   I199      1.0  0.91712  0.91199  0.40542  1.0000
  I   I200      1.0  0.04855  0.98433  0.60225  1.0000
  I   I201      1.0  0.87114  0.87851  0.87502  1.0000
  I   I202      1.0  0.38489  0.81412  0.04896  1.0000
  I   I203      1.0  0.04702  0.62523  0.02551  1.0000
  I   I204      1.0  0.93379  0.64274  0.35100  1.0000
  I   I205      1.0  0.34017  0.26346  0.56781  1.0000
  I   I206      1.0  0.23823  0.19845  0.29695  1.0000
  I   I207      1.0  0.27845  0.12801  0.99065  1.0000
  I   I208      1.0  0.12435  0.71767  0.87440  1.0000
  I   I209      1.0  0.23578  0.69679  0.22420  1.0000
  I   I210      1.0  0.16282  0.51273  0.12308  1.0000
  I   I211      1.0  0.69403  0.66703  0.52174  1.0000
  I   I212      1.0  0.76881  0.77753  0.82261  1.0000
  I   I213      1.0  0.25498  0.51190  0.51786  1.0000
  I   I214      1.0  0.55931  0.86617  0.59576  1.0000
  I   I215      1.0  0.69208  0.91982  0.54109  1.0000
  I   I216      1.0  0.46252  0.90975  0.72929  1.0000
  I   I217      1.0  0.34923  0.16797  0.92348  1.0000
  I   I218      1.0  0.28789  0.34638  0.84850  1.0000
  I   I219      1.0  0.35336  0.54212  0.96534  1.0000
  I   I220      1.0  0.50193  0.57261  0.84407  1.0000
  I   I221      1.0  0.63068  0.47022  0.83721  1.0000
  I   I222      1.0  0.75756  0.47640  0.54426  1.0000
  I   I223      1.0  0.70206  0.45856  0.07699  1.0000
  I   I224      1.0  0.74939  0.31729  0.49068  1.0000
  I   I225      1.0  0.01899  0.34482  0.04189  1.0000
  I   I226      1.0  0.03675  0.72578  0.96659  1.0000
  I   I227      1.0  0.67693  0.77951  0.97498  1.0000
  I   I228      1.0  0.86144  0.57636  0.70224  1.0000
  I   I229      1.0  0.60841  0.22624  0.13127  1.0000
  I   I230      1.0  0.46800  0.37593  0.45444  1.0000
  I   I231      1.0  0.50278  0.43365  0.15052  1.0000
  I   I232      1.0  0.14902  0.97976  0.23451  1.0000
  I   I233      1.0  0.64632  0.21226  0.81390  1.0000
  I   I234      1.0  0.31351  0.85772  0.73342  1.0000
  I   I235      1.0  0.82423  0.17946  0.97150  1.0000
  I   I236      1.0  0.88654  0.47387  0.44793  1.0000
  I   I237      1.0  0.03167  0.47649  0.53221  1.0000
  I   I238      1.0  0.67871  0.05060  0.27265  1.0000
  I   I239      1.0  0.61437  0.06352  0.14717  1.0000
  I   I240      1.0  0.36903  0.28837  0.73335  1.0000
  I   I241      1.0  0.67157  0.70995  0.19476  1.0000
  I   I242      1.0  0.89920  0.10507  0.30436  1.0000
  I   I243      1.0  0.56543  0.77812  0.18336  1.0000
  I   I244      1.0  0.24546  0.13149  0.55376  1.0000
  I   I245      1.0  0.99101  0.24976  0.19950  1.0000
  I   I246      1.0  0.17774  0.20692  0.76069  1.0000
  I   I247      1.0  0.93731  0.95324  0.31422  1.0000
  I   I248      1.0  0.99508  0.09224  0.59140  1.0000
  I   I249      1.0  0.92512  0.82236  0.79454  1.0000
  I   I250      1.0  0.44936  0.78039  0.13284  1.0000
  I   I251      1.0  0.02126  0.66965  0.14001  1.0000
  I   I252      1.0  0.94163  0.71041  0.27793  1.0000
  I   I253      1.0  0.33817  0.28124  0.41641  1.0000
  I   I254      1.0  0.40712  0.11072  0.35912  1.0000
  I   I255      1.0  0.30670  0.04897  0.00385  1.0000
  I   I256      1.0  0.21892  0.69745  0.82336  1.0000
  I   I257      1.0  0.20906  0.76812  0.16973  1.0000
  I   I258      1.0  0.17186  0.37957  0.04372  1.0000
  I   I259      1.0  0.64996  0.72933  0.62744  1.0000
  I   I260      1.0  0.81236  0.84992  0.01609  1.0000
  I   I261      1.0  0.30252  0.51905  0.44015  1.0000
  I   I262      1.0  0.57000  0.89994  0.46889  1.0000
  I   I263      1.0  0.72754  0.95212  0.51472  1.0000
  I   I264      1.0  0.40430  0.99141  0.72323  1.0000
  I   I265      1.0  0.39677  0.19789  0.85352  1.0000
  I   I266      1.0  0.21827  0.39566  0.81101  1.0000
  I   I267      1.0  0.37693  0.49453  0.78236  1.0000
  I   I268      1.0  0.48799  0.71654  0.89301  1.0000
  I   I269      1.0  0.61549  0.47165  0.69393  1.0000
  I   I270      1.0  0.82938  0.41244  0.57291  1.0000
  I   I271      1.0  0.71820  0.44931  0.19961  1.0000
  I   I272      1.0  0.74691  0.38789  0.50801  1.0000
  I   I273      1.0  0.93402  0.36950  0.98148  1.0000
  I   I274      1.0  0.07743  0.72721  0.08262  1.0000
  I   I275      1.0  0.65523  0.72732  0.91562  1.0000
  I   I276      1.0  0.98243  0.52734  0.74246  1.0000
  I   I277      1.0  0.58452  0.28077  0.20799  1.0000
  I   I278      1.0  0.42420  0.34126  0.40433  1.0000
  I   I279      1.0  0.57003  0.36830  0.08148  1.0000
  I   I280      1.0  0.13490  0.97181  0.37065  1.0000
  I   I281      1.0  0.62915  0.20914  0.65320  1.0000
  I   I282      1.0  0.41947  0.73110  0.62974  1.0000
  I   I283      1.0  0.78026  0.30213  0.89428  1.0000
  I   I284      1.0  0.95292  0.40653  0.45361  1.0000
  I   I285      1.0  0.00869  0.55193  0.51746  1.0000
  I   I286      1.0  0.71709  0.04210  0.38300  1.0000
  I   I287      1.0  0.54306  0.05391  0.18410  1.0000
  I   I288      1.0  0.45258  0.24058  0.81818  1.0000
  I   I289      1.0  0.71931  0.69438  0.30531  1.0000
  I   I290      1.0  0.88229  0.01793  0.12825  1.0000
  I   I291      1.0  0.95933  0.13013  0.19894  1.0000
  I   I292      1.0  0.34191  0.05896  0.61014  1.0000
  I   I293      1.0  0.03654  0.16514  0.17905  1.0000
  I   I294      1.0  0.02439  0.27616  0.82569  1.0000
  I   I295      1.0  0.03772  0.88154  0.30540  1.0000
  I   I296      1.0  0.04372  0.05740  0.67781  1.0000
  I   I297      1.0  0.88224  0.98300  0.75749  1.0000
  I   I298      1.0  0.38325  0.83077  0.24883  1.0000
  I   I299      1.0  0.48935  0.82037  0.81971  1.0000
  I   I300      1.0  0.96229  0.60485  0.23870  1.0000
  I   I301      1.0  0.22343  0.12760  0.10958  1.0000
  I   I302      1.0  0.41754  0.26729  0.42960  1.0000
  I   I303      1.0  0.34010  0.13370  0.38590  1.0000
  I   I304      1.0  0.20355  0.45186  0.15513  1.0000
  I   I305      1.0  0.23678  0.72955  0.02139  1.0000
  I   I306      1.0  0.11904  0.76225  0.69458  1.0000
  I   I307      1.0  0.67202  0.64907  0.65260  1.0000
  I   I308      1.0  0.83313  0.79312  0.81820  1.0000
  I   I309      1.0  0.20338  0.53556  0.40967  1.0000
  I   I310      1.0  0.48425  0.01909  0.57514  1.0000
  I   I311      1.0  0.86003  0.83815  0.41553  1.0000
  I   I312      1.0  0.67580  0.00341  0.59180  1.0000
  I   I313      1.0  0.31866  0.51213  0.88416  1.0000
  I   I314      1.0  0.23926  0.25227  0.78359  1.0000
  I   I315      1.0  0.19042  0.47156  0.74599  1.0000
  I   I316      1.0  0.82277  0.48522  0.81057  1.0000
  I   I317      1.0  0.43370  0.70236  0.81149  1.0000
  I   I318      1.0  0.76571  0.44195  0.80155  1.0000
  I   I319      1.0  0.85656  0.41576  0.02030  1.0000
  I   I320      1.0  0.84260  0.34019  0.02354  1.0000
  I   I321      1.0  0.80447  0.25298  0.65871  1.0000
  I   I322      1.0  0.94551  0.74976  0.15617  1.0000
  I   I323      1.0  0.62688  0.67838  0.88031  1.0000
  I   I324      1.0  0.83271  0.62969  0.81025  1.0000
  I   I325      1.0  0.66210  0.12669  0.12618  1.0000
  I   I326      1.0  0.50328  0.29560  0.40727  1.0000
  I   I327      1.0  0.58302  0.43382  0.10902  1.0000
  I   I328      1.0  0.18315  0.98884  0.53283  1.0000
  I   I329      1.0  0.69539  0.20631  0.62108  1.0000
  I   I330      1.0  0.32948  0.82308  0.62981  1.0000
  I   I331      1.0  0.10134  0.51666  0.52784  1.0000
  I   I332      1.0  0.83517  0.23441  0.02872  1.0000
  I   I333      1.0  0.98010  0.50551  0.25200  1.0000
  I   I334      1.0  0.50072  0.29452  0.70169  1.0000
  I   I335      1.0  0.64799  0.13828  0.48235  1.0000
  I   I336      1.0  0.57749  0.96217  0.18330  1.0000
  I   I337      1.0  0.65503  0.72383  0.38511  1.0000
  I   I338      1.0  0.80842  0.03539  0.19737  1.0000
  I   I339      1.0  0.99872  0.05878  0.25227  1.0000
  I   I340      1.0  0.31046  0.09758  0.49582  1.0000
  I   I341      1.0  0.98392  0.30160  0.28749  1.0000
  I   I342      1.0  0.10318  0.23922  0.79771  1.0000
  I   I343      1.0  0.04224  0.82176  0.41965  1.0000
  I   I344      1.0  0.98585  0.16626  0.62806  1.0000
  I   I345      1.0  0.84475  0.93342  0.75717  1.0000
  I   I346      1.0  0.32633  0.83870  0.17131  1.0000
  I   I347      1.0  0.51587  0.84006  0.95075  1.0000
  I   I348      1.0  0.91430  0.59826  0.15172  1.0000
  I   I349      1.0  0.23028  0.07985  0.22211  1.0000
  I   I350      1.0  0.38014  0.21823  0.32615  1.0000
  I   I351      1.0  0.38013  0.07953  0.25201  1.0000
  I   I352      1.0  0.17404  0.38383  0.18791  1.0000
  I   I353      1.0  0.22616  0.67616  0.95041  1.0000
  I   I354      1.0  0.17626  0.71936  0.58424  1.0000
  I   I355      1.0  0.58258  0.79003  0.64012  1.0000
  I   I356      1.0  0.81271  0.78855  0.06134  1.0000
  I   I357      1.0  0.23918  0.58336  0.35223  1.0000
  I   I358      1.0  0.43157  0.98768  0.58058  1.0000
  I   I359      1.0  0.80317  0.85183  0.31003  1.0000
  I   I360      1.0  0.73711  0.97095  0.66952  1.0000
  I   I361      1.0  0.33204  0.56814  0.81466  1.0000
  I   I362      1.0  0.31356  0.21265  0.82007  1.0000
  I   I363      1.0  0.14884  0.42736  0.75245  1.0000
  I   I364      1.0  0.79958  0.55219  0.72246  1.0000
  I   I365      1.0  0.51819  0.57594  0.69563  1.0000
  I   I366      1.0  0.68316  0.49895  0.78426  1.0000
  I   I367      1.0  0.94274  0.38811  0.11072  1.0000
  I   I368      1.0  0.76199  0.39040  0.03666  1.0000
  I   I369      1.0  0.87187  0.26283  0.67753  1.0000
  I   I370      1.0  0.91969  0.83264  0.15839  1.0000
  I   I371      1.0  0.68847  0.61420  0.92600  1.0000
  I   I372      1.0  0.85586  0.64525  0.66845  1.0000
  I   I373      1.0  0.68340  0.18689  0.08530  1.0000
  I   I374      1.0  0.53996  0.22009  0.38258  1.0000
  I   I375      1.0  0.49418  0.44143  0.00964  1.0000
  I   I376      1.0  0.18094  0.99431  0.37941  1.0000
  I   I377      1.0  0.66229  0.25935  0.71882  1.0000
  I   I378      1.0  0.35525  0.75821  0.70266  1.0000
  I   I379      1.0  0.11978  0.44025  0.55359  1.0000
  I   I380      1.0  0.70263  0.32653  0.97261  1.0000
  I   I381      1.0  0.01046  0.42609  0.30040  1.0000
  I   I382      1.0  0.50878  0.21449  0.73103  1.0000
  I   I383      1.0  0.72832  0.09709  0.42885  1.0000
  I   I384      1.0  0.59654  0.95816  0.02237  1.0000
