data_image0
_chemical_formula_structural       Ti96I384
_chemical_formula_sum              "Ti96 I384"
_cell_length_a       49.5978
_cell_length_b       49.2849
_cell_length_c       24.0357
_cell_angle_alpha    88.7757
_cell_angle_beta     88.7757
_cell_angle_gamma    62.1586

_space_group_name_H-M_alt    "P 1"
_space_group_IT_number       1

loop_
  _space_group_symop_operation_xyz
  'x, y, z'

loop_
  _atom_site_type_symbol
  _atom_site_label
  _atom_site_symmetry_multiplicity
  _atom_site_fract_x
  _atom_site_fract_y
  _atom_site_fract_z
  _atom_site_occupancy
  Ti  Ti1       1.0  0.37595  0.95448  0.46321  1.0000
  Ti  Ti2       1.0  0.13268  0.04484  0.03520  1.0000
  Ti  Ti3       1.0  0.32499  0.94413  0.12660  1.0000
  Ti  Ti4       1.0  0.16060  0.17729  0.48577  1.0000
  Ti  Ti5       1.0  0.09621  0.36164  0.86132  1.0000
  Ti  Ti6       1.0  0.19267  0.21694  0.00244  1.0000
  Ti  Ti7       1.0  0.93128  0.69774  0.12012  1.0000
  Ti  Ti8       1.0  0.93182  0.90873  0.60795  1.0000
  Ti  Ti9       1.0  0.83996  0.86978  0.12991  1.0000
  Ti  Ti10      1.0  0.05605  0.84752  0.16538  1.0000
  Ti  Ti11      1.0  0.13285  0.80145  0.70121  1.0000
  Ti  Ti12      1.0  0.02216  0.74154  0.61835  1.0000
  Ti  Ti13      1.0  0.39878  0.15525  0.36448  1.0000
  Ti  Ti14      1.0  0.34167  0.04815  0.80711  1.0000
  Ti  Ti15      1.0  0.38043  0.09258  0.05815  1.0000
  Ti  Ti16      1.0  0.25723  0.64804  0.87009  1.0000
  Ti  Ti17      1.0  0.21419  0.63664  0.16243  1.0000
  Ti  Ti18      1.0  0.33194  0.45851  0.65379  1.0000
  Ti  Ti19      1.0  0.41076  0.70049  0.11906  1.0000
  Ti  Ti20      1.0  0.64760  0.55535  0.60207  1.0000
  Ti  Ti21      1.0  0.40443  0.67516  0.40475  1.0000
  Ti  Ti22      1.0  0.30380  0.89354  0.71580  1.0000
  Ti  Ti23      1.0  0.54368  0.87699  0.81687  1.0000
  Ti  Ti24      1.0  0.45944  0.74421  0.65046  1.0000
  Ti  Ti25      1.0  0.50143  0.26648  0.71743  1.0000
  Ti  Ti26      1.0  0.41791  0.31225  0.96904  1.0000
  Ti  Ti27      1.0  0.48266  0.24924  0.45404  1.0000
  Ti  Ti28      1.0  0.50447  0.40203  0.29318  1.0000
  Ti  Ti29      1.0  0.67763  0.38567  0.98423  1.0000
  Ti  Ti30      1.0  0.50842  0.49109  0.00547  1.0000
  Ti  Ti31      1.0  0.77873  0.56711  0.33783  1.0000
  Ti  Ti32      1.0  0.85605  0.45560  0.77610  1.0000
  Ti  Ti33      1.0  0.78208  0.54535  0.04006  1.0000
  Ti  Ti34      1.0  0.74382  0.81462  0.86066  1.0000
  Ti  Ti35      1.0  0.55912  0.77096  0.25006  1.0000
  Ti  Ti36      1.0  0.78631  0.67696  0.59198  1.0000
  Ti  Ti37      1.0  0.74106  0.17891  0.07742  1.0000
  Ti  Ti38      1.0  0.91963  0.14027  0.14161  1.0000
  Ti  Ti39      1.0  0.83139  0.14679  0.53961  1.0000
  Ti  Ti40      1.0  0.93093  0.36039  0.19247  1.0000
  Ti  Ti41      1.0  0.94235  0.22043  0.42472  1.0000
  Ti  Ti42      1.0  0.11171  0.99573  0.41042  1.0000
  Ti  Ti43      1.0  0.09410  0.41710  0.24689  1.0000
  Ti  Ti44      1.0  0.10186  0.50080  0.55720  1.0000
  Ti  Ti45      1.0  0.09523  0.53523  0.83039  1.0000
  Ti  Ti46      1.0  0.75892  0.98695  0.40470  1.0000
  Ti  Ti47      1.0  0.68010  0.02957  0.71024  1.0000
  Ti  Ti48      1.0  0.62297  0.06320  0.98889  1.0000
  Ti  Ti49      1.0  0.30404  0.97101  0.36841  1.0000
  Ti  Ti50      1.0  0.08113  0.07157  0.92324  1.0000
  Ti  Ti51      1.0  0.19351  0.01809  0.14013  1.0000
  Ti  Ti52      1.0  0.15750  0.23745  0.37494  1.0000
  Ti  Ti53      1.0  0.07685  0.37474  0.68014  1.0000
  Ti  Ti54      1.0  0.14081  0.23673  0.83050  1.0000
  Ti  Ti55      1.0  0.90111  0.78492  0.05110  1.0000
  Ti  Ti56      1.0  0.93777  0.94926  0.49813  1.0000
  Ti  Ti57      1.0  0.79765  0.95863  0.10609  1.0000
  Ti  Ti58      1.0  0.02243  0.92819  0.21839  1.0000
  Ti  Ti59      1.0  0.14835  0.81333  0.15029  1.0000
  Ti  Ti60      1.0  0.08257  0.76869  0.65866  1.0000
  Ti  Ti61      1.0  0.38067  0.11871  0.21073  1.0000
  Ti  Ti62      1.0  0.32059  0.24031  0.44360  1.0000
  Ti  Ti63      1.0  0.31650  0.11787  0.72667  1.0000
  Ti  Ti64      1.0  0.33570  0.38766  0.62380  1.0000
  Ti  Ti65      1.0  0.26921  0.59833  0.01839  1.0000
  Ti  Ti66      1.0  0.20032  0.60780  0.31654  1.0000
  Ti  Ti67      1.0  0.37609  0.75466  0.28140  1.0000
  Ti  Ti68      1.0  0.68538  0.58747  0.66022  1.0000
  Ti  Ti69      1.0  0.34320  0.71219  0.57002  1.0000
  Ti  Ti70      1.0  0.39818  0.82401  0.70416  1.0000
  Ti  Ti71      1.0  0.59699  0.86948  0.67822  1.0000
  Ti  Ti72      1.0  0.51396  0.84309  0.94591  1.0000
  Ti  Ti73      1.0  0.54083  0.19676  0.58437  1.0000
  Ti  Ti74      1.0  0.44815  0.23764  0.83694  1.0000
  Ti  Ti75      1.0  0.38944  0.33777  0.11995  1.0000
  Ti  Ti76      1.0  0.48636  0.58156  0.92000  1.0000
  Ti  Ti77      1.0  0.48405  0.45990  0.38547  1.0000
  Ti  Ti78      1.0  0.59217  0.43103  0.91272  1.0000
  Ti  Ti79      1.0  0.82952  0.55417  0.18336  1.0000
  Ti  Ti80      1.0  0.84265  0.51257  0.44253  1.0000
  Ti  Ti81      1.0  0.84534  0.51929  0.89073  1.0000
  Ti  Ti82      1.0  0.70792  0.78696  0.94362  1.0000
  Ti  Ti83      1.0  0.63101  0.71620  0.23062  1.0000
  Ti  Ti84      1.0  0.80509  0.72238  0.45100  1.0000
  Ti  Ti85      1.0  0.67232  0.18918  0.17128  1.0000
  Ti  Ti86      1.0  0.83400  0.16204  0.14214  1.0000
  Ti  Ti87      1.0  0.77555  0.21409  0.53613  1.0000
  Ti  Ti88      1.0  0.94144  0.33063  0.06286  1.0000
  Ti  Ti89      1.0  0.92980  0.27946  0.52918  1.0000
  Ti  Ti90      1.0  0.15137  0.91374  0.45903  1.0000
  Ti  Ti91      1.0  0.10534  0.52209  0.98442  1.0000
  Ti  Ti92      1.0  0.05980  0.44189  0.41214  1.0000
  Ti  Ti93      1.0  0.03773  0.53889  0.69026  1.0000
  Ti  Ti94      1.0  0.62111  0.05186  0.15767  1.0000
  Ti  Ti95      1.0  0.68549  0.99086  0.54038  1.0000
  Ti  Ti96      1.0  0.61567  0.02550  0.81620  1.0000
  I   I1        1.0  0.07991  0.02236  0.88604  1.0000
  I   I2        1.0  0.13476  0.04223  0.16072  1.0000
  I   I3        1.0  0.26083  0.95703  0.36637  1.0000
  I   I4        1.0  0.06652  0.33332  0.63670  1.0000
  I   I5        1.0  0.14737  0.28068  0.78191  1.0000
  I   I6        1.0  0.16369  0.20622  0.08819  1.0000
  I   I7        1.0  0.91984  0.00670  0.49596  1.0000
  I   I8        1.0  0.88913  0.96506  0.61914  1.0000
  I   I9        1.0  0.90378  0.83480  0.09049  1.0000
  I   I10       1.0  0.09192  0.84210  0.06888  1.0000
  I   I11       1.0  0.12230  0.77091  0.58261  1.0000
  I   I12       1.0  0.03342  0.94443  0.30754  1.0000
  I   I13       1.0  0.33036  0.18527  0.40073  1.0000
  I   I14       1.0  0.37036  0.08409  0.78902  1.0000
  I   I15       1.0  0.40425  0.05921  0.16288  1.0000
  I   I16       1.0  0.31375  0.60967  0.96315  1.0000
  I   I17       1.0  0.24366  0.58353  0.22927  1.0000
  I   I18       1.0  0.30479  0.36880  0.68829  1.0000
  I   I19       1.0  0.68330  0.52786  0.70491  1.0000
  I   I20       1.0  0.29975  0.76500  0.59028  1.0000
  I   I21       1.0  0.40683  0.73267  0.39753  1.0000
  I   I22       1.0  0.57290  0.89200  0.57725  1.0000
  I   I23       1.0  0.51488  0.91898  0.73652  1.0000
  I   I24       1.0  0.43691  0.82113  0.62258  1.0000
  I   I25       1.0  0.50035  0.21614  0.78329  1.0000
  I   I26       1.0  0.41133  0.28113  0.06421  1.0000
  I   I27       1.0  0.59745  0.16044  0.53850  1.0000
  I   I28       1.0  0.45464  0.47330  0.28528  1.0000
  I   I29       1.0  0.62915  0.37093  0.91159  1.0000
  I   I30       1.0  0.47095  0.53171  0.92144  1.0000
  I   I31       1.0  0.82814  0.57127  0.39961  1.0000
  I   I32       1.0  0.84688  0.52541  0.77184  1.0000
  I   I33       1.0  0.81039  0.58218  0.07879  1.0000
  I   I34       1.0  0.58264  0.73227  0.15475  1.0000
  I   I35       1.0  0.74829  0.76156  0.47452  1.0000
  I   I36       1.0  0.70926  0.77347  0.04356  1.0000
  I   I37       1.0  0.79743  0.13528  0.12460  1.0000
  I   I38       1.0  0.73083  0.23760  0.45778  1.0000
  I   I39       1.0  0.66152  0.15167  0.24107  1.0000
  I   I40       1.0  0.97103  0.27240  0.60310  1.0000
  I   I41       1.0  0.13398  0.87405  0.43501  1.0000
  I   I42       1.0  0.96761  0.36796  0.10016  1.0000
  I   I43       1.0  0.11016  0.39764  0.35721  1.0000
  I   I44       1.0  0.05500  0.49537  0.61181  1.0000
  I   I45       1.0  0.05490  0.52746  0.91586  1.0000
  I   I46       1.0  0.72994  0.94955  0.45480  1.0000
  I   I47       1.0  0.66148  0.98615  0.73915  1.0000
  I   I48       1.0  0.60865  0.02357  0.06213  1.0000
  I   I49       1.0  0.35736  0.97986  0.35581  1.0000
  I   I50       1.0  0.09168  0.10425  0.03597  1.0000
  I   I51       1.0  0.26417  0.98352  0.09356  1.0000
  I   I52       1.0  0.11077  0.24427  0.46656  1.0000
  I   I53       1.0  0.06596  0.34820  0.78513  1.0000
  I   I54       1.0  0.14289  0.21564  0.94140  1.0000
  I   I55       1.0  0.89977  0.71868  0.01344  1.0000
  I   I56       1.0  0.96842  0.87259  0.52943  1.0000
  I   I57       1.0  0.81405  0.91219  0.01941  1.0000
  I   I58       1.0  0.01912  0.82268  0.12879  1.0000
  I   I59       1.0  0.17078  0.84759  0.11363  1.0000
  I   I60       1.0  0.03224  0.77025  0.72370  1.0000
  I   I61       1.0  0.36077  0.17401  0.25261  1.0000
  I   I62       1.0  0.31442  0.28408  0.37606  1.0000
  I   I63       1.0  0.33963  0.14414  0.66624  1.0000
  I   I64       1.0  0.21186  0.65935  0.80713  1.0000
  I   I65       1.0  0.22071  0.59555  0.07148  1.0000
  I   I66       1.0  0.17434  0.57498  0.34609  1.0000
  I   I67       1.0  0.36271  0.74451  0.18275  1.0000
  I   I68       1.0  0.61484  0.59540  0.67664  1.0000
  I   I69       1.0  0.34749  0.71676  0.45192  1.0000
  I   I70       1.0  0.34715  0.83656  0.76615  1.0000
  I   I71       1.0  0.59655  0.88488  0.78726  1.0000
  I   I72       1.0  0.52279  0.78651  0.95185  1.0000
  I   I73       1.0  0.48842  0.23605  0.62616  1.0000
  I   I74       1.0  0.39847  0.28260  0.89887  1.0000
  I   I75       1.0  0.37026  0.39598  0.13249  1.0000
  I   I76       1.0  0.46852  0.39369  0.23204  1.0000
  I   I77       1.0  0.51051  0.44928  0.48781  1.0000
  I   I78       1.0  0.55778  0.49589  0.94183  1.0000
  I   I79       1.0  0.83419  0.51885  0.29245  1.0000
  I   I80       1.0  0.86230  0.45574  0.41204  1.0000
  I   I81       1.0  0.84175  0.50376  0.99885  1.0000
  I   I82       1.0  0.69305  0.81438  0.81401  1.0000
  I   I83       1.0  0.57108  0.71637  0.30121  1.0000
  I   I84       1.0  0.78030  0.68155  0.47722  1.0000
  I   I85       1.0  0.72363  0.19947  0.18571  1.0000
  I   I86       1.0  0.86700  0.19514  0.16130  1.0000
  I   I87       1.0  0.85242  0.12752  0.63819  1.0000
  I   I88       1.0  0.89016  0.33683  0.11033  1.0000
  I   I89       1.0  0.91185  0.19229  0.39114  1.0000
  I   I90       1.0  0.17533  0.95566  0.46955  1.0000
  I   I91       1.0  0.15561  0.52322  0.02004  1.0000
  I   I92       1.0  0.01952  0.49954  0.43479  1.0000
  I   I93       1.0  0.04697  0.57727  0.76856  1.0000
  I   I94       1.0  0.57011  0.05519  0.19867  1.0000
  I   I95       1.0  0.64502  0.03632  0.61685  1.0000
  I   I96       1.0  0.57964  0.06799  0.90849  1.0000
  I   I97       1.0  0.32018  0.95448  0.23915  1.0000
  I   I98       1.0  0.39095  0.99647  0.48980  1.0000
  I   I99       1.0  0.17605  0.06087  0.04527  1.0000
  I   I100      1.0  0.20282  0.23125  0.31867  1.0000
  I   I101      1.0  0.11281  0.17333  0.53826  1.0000
  I   I102      1.0  0.10397  0.31683  0.93821  1.0000
  I   I103      1.0  0.83156  0.83199  0.05384  1.0000
  I   I104      1.0  0.98898  0.65939  0.09693  1.0000
  I   I105      1.0  0.73856  0.98760  0.07335  1.0000
  I   I106      1.0  0.01362  0.70594  0.69519  1.0000
  I   I107      1.0  0.10668  0.79682  0.20371  1.0000
  I   I108      1.0  0.13328  0.74498  0.74180  1.0000
  I   I109      1.0  0.42804  0.11549  0.13215  1.0000
  I   I110      1.0  0.38408  0.21624  0.38930  1.0000
  I   I111      1.0  0.37925  0.99160  0.77023  1.0000
  I   I112      1.0  0.38950  0.34418  0.63622  1.0000
  I   I113      1.0  0.22730  0.65973  0.97461  1.0000
  I   I114      1.0  0.16293  0.64071  0.21922  1.0000
  I   I115      1.0  0.38942  0.69428  0.29718  1.0000
  I   I116      1.0  0.46307  0.65441  0.08844  1.0000
  I   I117      1.0  0.63447  0.50674  0.58491  1.0000
  I   I118      1.0  0.39978  0.77394  0.63900  1.0000
  I   I119      1.0  0.28127  0.90501  0.82027  1.0000
  I   I120      1.0  0.53163  0.90189  0.92688  1.0000
  I   I121      1.0  0.52969  0.25386  0.51005  1.0000
  I   I122      1.0  0.44666  0.28799  0.76271  1.0000
  I   I123      1.0  0.36429  0.35981  0.00055  1.0000
  I   I124      1.0  0.49059  0.55593  0.02796  1.0000
  I   I125      1.0  0.53455  0.40298  0.20260  1.0000
  I   I126      1.0  0.61712  0.42947  0.02828  1.0000
  I   I127      1.0  0.79081  0.52772  0.14793  1.0000
  I   I128      1.0  0.77882  0.52300  0.40875  1.0000
  I   I129      1.0  0.82543  0.46469  0.88149  1.0000
  I   I130      1.0  0.79963  0.68485  0.69749  1.0000
  I   I131      1.0  0.75063  0.83025  0.96043  1.0000
  I   I132      1.0  0.65635  0.72793  0.31317  1.0000
  I   I133      1.0  0.82557  0.22346  0.54150  1.0000
  I   I134      1.0  0.77556  0.20732  0.07398  1.0000
  I   I135      1.0  0.94325  0.11673  0.23397  1.0000
  I   I136      1.0  0.10382  0.01529  0.51217  1.0000
  I   I137      1.0  0.96704  0.36913  0.26564  1.0000
  I   I138      1.0  0.96196  0.22382  0.32611  1.0000
  I   I139      1.0  0.10888  0.57292  0.89936  1.0000
  I   I140      1.0  0.08448  0.46913  0.32273  1.0000
  I   I141      1.0  0.08331  0.55134  0.62389  1.0000
  I   I142      1.0  0.58480  0.10346  0.07135  1.0000
  I   I143      1.0  0.71630  0.02736  0.48664  1.0000
  I   I144      1.0  0.63399  0.06963  0.76613  1.0000
  I   I145      1.0  0.35528  0.91551  0.39778  1.0000
  I   I146      1.0  0.08148  0.03594  0.02337  1.0000
  I   I147      1.0  0.32061  0.90764  0.05367  1.0000
  I   I148      1.0  0.18918  0.21401  0.47213  1.0000
  I   I149      1.0  0.10073  0.39562  0.76439  1.0000
  I   I150      1.0  0.19749  0.23583  0.88811  1.0000
  I   I151      1.0  0.89407  0.76151  0.14488  1.0000
  I   I152      1.0  0.89536  0.88341  0.60929  1.0000
  I   I153      1.0  0.86321  0.91278  0.14800  1.0000
  I   I154      1.0  0.01352  0.90053  0.10279  1.0000
  I   I155      1.0  0.19548  0.77944  0.69491  1.0000
  I   I156      1.0  0.09153  0.70647  0.66433  1.0000
  I   I157      1.0  0.41932  0.09919  0.29850  1.0000
  I   I158      1.0  0.29313  0.15940  0.80590  1.0000
  I   I159      1.0  0.34127  0.07103  0.05763  1.0000
  I   I160      1.0  0.28476  0.44835  0.62370  1.0000
  I   I161      1.0  0.27130  0.62757  0.10788  1.0000
  I   I162      1.0  0.32015  0.51457  0.62237  1.0000
  I   I163      1.0  0.43730  0.71167  0.21586  1.0000
  I   I164      1.0  0.66474  0.61945  0.74980  1.0000
  I   I165      1.0  0.40339  0.66651  0.52266  1.0000
  I   I166      1.0  0.33872  0.85685  0.62718  1.0000
  I   I167      1.0  0.57985  0.82959  0.73014  1.0000
  I   I168      1.0  0.46520  0.69129  0.69948  1.0000
  I   I169      1.0  0.56688  0.21913  0.67103  1.0000
  I   I170      1.0  0.47472  0.25669  0.94579  1.0000
  I   I171      1.0  0.48051  0.23249  0.35101  1.0000
  I   I172      1.0  0.49107  0.57619  0.81420  1.0000
  I   I173      1.0  0.68638  0.34332  0.05621  1.0000
  I   I174      1.0  0.53813  0.43537  0.95094  1.0000
  I   I175      1.0  0.78534  0.59965  0.25316  1.0000
  I   I176      1.0  0.89998  0.44452  0.70074  1.0000
  I   I177      1.0  0.78551  0.56507  0.91242  1.0000
  I   I178      1.0  0.77055  0.75489  0.90449  1.0000
  I   I179      1.0  0.60258  0.78677  0.22697  1.0000
  I   I180      1.0  0.73230  0.68800  0.62657  1.0000
  I   I181      1.0  0.71902  0.13677  0.11795  1.0000
  I   I182      1.0  0.86185  0.15578  0.03681  1.0000
  I   I183      1.0  0.83755  0.10105  0.48226  1.0000
  I   I184      1.0  0.90208  0.34244  0.27029  1.0000
  I   I185      1.0  0.97197  0.26318  0.44719  1.0000
  I   I186      1.0  0.12004  0.94472  0.36067  1.0000
  I   I187      1.0  0.05103  0.45650  0.18384  1.0000
  I   I188      1.0  0.10154  0.45204  0.49700  1.0000
  I   I189      1.0  0.09144  0.49140  0.74790  1.0000
  I   I190      1.0  0.80767  0.93774  0.38630  1.0000
  I   I191      1.0  0.72676  0.98796  0.62389  1.0000
  I   I192      1.0  0.65293  0.01412  0.91359  1.0000
  I   I193      1.0  0.43071  0.91509  0.47122  1.0000
  I   I194      1.0  0.15402  0.02144  0.93554  1.0000
  I   I195      1.0  0.33922  0.98225  0.06704  1.0000
  I   I196      1.0  0.19749  0.13026  0.53554  1.0000
  I   I197      1.0  0.04876  0.40792  0.90291  1.0000
  I   I198      1.0  0.22236  0.24139  0.04443  1.0000
  I   I199      1.0  0.90805  0.65886  0.12358  1.0000
  I   I200      1.0  0.96820  0.94766  0.59661  1.0000
  I   I201      1.0  0.78183  0.91169  0.16589  1.0000
  I   I202      1.0  0.01541  0.87315  0.25361  1.0000
  I   I203      1.0  0.12302  0.85288  0.64324  1.0000
  I   I204      1.0  0.03736  0.69022  0.56103  1.0000
  I   I205      1.0  0.45032  0.15296  0.34030  1.0000
  I   I206      1.0  0.28496  0.05694  0.81254  1.0000
  I   I207      1.0  0.35865  0.11871  0.96050  1.0000
  I   I208      1.0  0.25813  0.70109  0.86422  1.0000
  I   I209      1.0  0.18045  0.69365  0.12864  1.0000
  I   I210      1.0  0.33797  0.44523  0.77160  1.0000
  I   I211      1.0  0.41712  0.73879  0.04477  1.0000
  I   I212      1.0  0.74242  0.56910  0.67446  1.0000
  I   I213      1.0  0.39831  0.62396  0.39942  1.0000
  I   I214      1.0  0.25546  0.90326  0.66155  1.0000
  I   I215      1.0  0.57673  0.82554  0.88923  1.0000
  I   I216      1.0  0.47624  0.71761  0.55499  1.0000
  I   I217      1.0  0.48966  0.31133  0.64811  1.0000
  I   I218      1.0  0.41812  0.34792  0.88665  1.0000
  I   I219      1.0  0.43637  0.24550  0.50330  1.0000
  I   I220      1.0  0.54246  0.34637  0.33318  1.0000
  I   I221      1.0  0.72042  0.34479  0.92442  1.0000
  I   I222      1.0  0.53824  0.46979  0.09540  1.0000
  I   I223      1.0  0.73854  0.55487  0.28422  1.0000
  I   I224      1.0  0.88551  0.39718  0.79885  1.0000
  I   I225      1.0  0.75547  0.51141  0.01201  1.0000
  I   I226      1.0  0.71538  0.87341  0.81136  1.0000
  I   I227      1.0  0.54273  0.80062  0.34373  1.0000
  I   I228      1.0  0.82611  0.70031  0.55693  1.0000
  I   I229      1.0  0.69940  0.23552  0.05009  1.0000
  I   I230      1.0  0.95582  0.16356  0.11128  1.0000
  I   I231      1.0  0.80265  0.17787  0.43739  1.0000
  I   I232      1.0  0.89901  0.42125  0.18265  1.0000
  I   I233      1.0  0.90431  0.26329  0.61189  1.0000
  I   I234      1.0  0.05842  0.03854  0.37408  1.0000
  I   I235      1.0  0.14475  0.41076  0.20499  1.0000
  I   I236      1.0  0.12368  0.52294  0.47823  1.0000
  I   I237      1.0  0.13920  0.53416  0.76679  1.0000
  I   I238      1.0  0.71975  0.00756  0.32676  1.0000
  I   I239      1.0  0.70831  0.06618  0.71500  1.0000
  I   I240      1.0  0.62151  0.11032  0.93595  1.0000
  I   I241      1.0  0.36220  0.93938  0.56292  1.0000
  I   I242      1.0  0.17521  0.98386  0.07032  1.0000
  I   I243      1.0  0.38169  0.89772  0.14188  1.0000
  I   I244      1.0  0.16658  0.14750  0.39218  1.0000
  I   I245      1.0  0.14491  0.36050  0.89175  1.0000
  I   I246      1.0  0.23568  0.16032  0.99253  1.0000
  I   I247      1.0  0.94769  0.69516  0.21921  1.0000
  I   I248      1.0  0.95550  0.89020  0.70239  1.0000
  I   I249      1.0  0.85237  0.84795  0.22874  1.0000
  I   I250      1.0  0.09166  0.87804  0.20822  1.0000
  I   I251      1.0  0.13230  0.82508  0.80186  1.0000
  I   I252      1.0  0.96516  0.77177  0.58847  1.0000
  I   I253      1.0  0.41989  0.12459  0.45239  1.0000
  I   I254      1.0  0.34808  0.02955  0.90794  1.0000
  I   I255      1.0  0.42864  0.05421  0.00384  1.0000
  I   I256      1.0  0.30029  0.62671  0.79450  1.0000
  I   I257      1.0  0.22777  0.67018  0.23590  1.0000
  I   I258      1.0  0.39480  0.43956  0.66053  1.0000
  I   I259      1.0  0.36747  0.68861  0.09093  1.0000
  I   I260      1.0  0.61944  0.58601  0.51535  1.0000
  I   I261      1.0  0.46556  0.63937  0.37557  1.0000
  I   I262      1.0  0.31324  0.93810  0.68028  1.0000
  I   I263      1.0  0.50506  0.85349  0.82039  1.0000
  I   I264      1.0  0.51013  0.74116  0.68374  1.0000
  I   I265      1.0  0.51815  0.28880  0.79611  1.0000
  I   I266      1.0  0.44643  0.33096  0.04475  1.0000
  I   I267      1.0  0.45822  0.30281  0.41508  1.0000
  I   I268      1.0  0.54165  0.43201  0.34249  1.0000
  I   I269      1.0  0.70191  0.40804  0.05834  1.0000
  I   I270      1.0  0.46308  0.48155  0.03558  1.0000
  I   I271      1.0  0.73605  0.60529  0.40546  1.0000
  I   I272      1.0  0.82183  0.44103  0.71582  1.0000
  I   I273      1.0  0.73376  0.59489  0.03787  1.0000
  I   I274      1.0  0.79899  0.79998  0.81952  1.0000
  I   I275      1.0  0.50394  0.78457  0.21812  1.0000
  I   I276      1.0  0.82235  0.61702  0.59414  1.0000
  I   I277      1.0  0.74310  0.15572  0.97661  1.0000
  I   I278      1.0  0.94966  0.09469  0.07338  1.0000
  I   I279      1.0  0.88638  0.13504  0.49996  1.0000
  I   I280      1.0  0.97380  0.29972  0.16387  1.0000
  I   I281      1.0  0.96674  0.19912  0.52593  1.0000
  I   I282      1.0  0.14955  0.01530  0.37052  1.0000
  I   I283      1.0  0.07977  0.37509  0.22340  1.0000
  I   I284      1.0  0.15240  0.46406  0.60793  1.0000
  I   I285      1.0  0.13466  0.47905  0.88674  1.0000
  I   I286      1.0  0.78550  0.02246  0.39078  1.0000
  I   I287      1.0  0.72547  0.99704  0.78260  1.0000
  I   I288      1.0  0.65883  0.06860  0.07422  1.0000
  I   I289      1.0  0.30310  0.99882  0.47242  1.0000
  I   I290      1.0  0.02243  0.10656  0.92385  1.0000
  I   I291      1.0  0.21535  0.97085  0.20695  1.0000
  I   I292      1.0  0.12868  0.22104  0.30550  1.0000
  I   I293      1.0  0.02461  0.42543  0.66126  1.0000
  I   I294      1.0  0.17176  0.19351  0.76129  1.0000
  I   I295      1.0  0.96264  0.74911  0.06582  1.0000
  I   I296      1.0  0.97461  0.94129  0.41424  1.0000
  I   I297      1.0  0.77370  0.99316  0.20052  1.0000
  I   I298      1.0  0.04385  0.96330  0.17029  1.0000
  I   I299      1.0  0.17963  0.77009  0.07813  1.0000
  I   I300      1.0  0.04378  0.78134  0.56287  1.0000
  I   I301      1.0  0.34334  0.09885  0.26014  1.0000
  I   I302      1.0  0.33816  0.24662  0.54481  1.0000
  I   I303      1.0  0.26774  0.12763  0.66623  1.0000
  I   I304      1.0  0.32206  0.36525  0.53375  1.0000
  I   I305      1.0  0.29907  0.54005  0.04299  1.0000
  I   I306      1.0  0.16030  0.66089  0.37776  1.0000
  I   I307      1.0  0.39802  0.79091  0.25770  1.0000
  I   I308      1.0  0.70443  0.53996  0.57366  1.0000
  I   I309      1.0  0.31172  0.67822  0.57193  1.0000
  I   I310      1.0  0.40861  0.86537  0.74521  1.0000
  I   I311      1.0  0.63419  0.89223  0.66450  1.0000
  I   I312      1.0  0.45636  0.87879  0.94490  1.0000
  I   I313      1.0  0.53690  0.15153  0.64320  1.0000
  I   I314      1.0  0.45906  0.19369  0.89995  1.0000
  I   I315      1.0  0.41948  0.30238  0.20480  1.0000
  I   I316      1.0  0.52926  0.60390  0.90952  1.0000
  I   I317      1.0  0.47797  0.40887  0.40647  1.0000
  I   I318      1.0  0.58339  0.43460  0.80675  1.0000
  I   I319      1.0  0.85926  0.58721  0.20439  1.0000
  I   I320      1.0  0.83637  0.51476  0.54932  1.0000
  I   I321      1.0  0.86663  0.55857  0.89940  1.0000
  I   I322      1.0  0.66729  0.84302  0.95481  1.0000
  I   I323      1.0  0.67713  0.70424  0.16747  1.0000
  I   I324      1.0  0.82211  0.76238  0.46966  1.0000
  I   I325      1.0  0.63827  0.23612  0.23433  1.0000
  I   I326      1.0  0.87471  0.11099  0.17342  1.0000
  I   I327      1.0  0.77464  0.17099  0.60279  1.0000
  I   I328      1.0  0.95410  0.27671  0.01944  1.0000
  I   I329      1.0  0.89241  0.27397  0.45578  1.0000
  I   I330      1.0  0.20278  0.87011  0.49076  1.0000
  I   I331      1.0  0.09378  0.48316  0.04103  1.0000
  I   I332      1.0  0.05912  0.40928  0.49913  1.0000
  I   I333      1.0  0.01233  0.51538  0.76179  1.0000
  I   I334      1.0  0.62516  0.08841  0.23122  1.0000
  I   I335      1.0  0.67598  0.94491  0.57814  1.0000
  I   I336      1.0  0.59920  0.98896  0.86968  1.0000
  I   I337      1.0  0.27874  0.02885  0.33016  1.0000
  I   I338      1.0  0.10091  0.09173  0.84686  1.0000
  I   I339      1.0  0.20248  0.05737  0.20152  1.0000
  I   I340      1.0  0.12559  0.29531  0.35325  1.0000
  I   I341      1.0  0.11475  0.37815  0.61004  1.0000
  I   I342      1.0  0.08068  0.25733  0.83446  1.0000
  I   I343      1.0  0.89492  0.79213  0.94179  1.0000
  I   I344      1.0  0.89806  0.93662  0.45122  1.0000
  I   I345      1.0  0.81284  0.99822  0.06233  1.0000
  I   I346      1.0  0.96778  0.97419  0.19939  1.0000
  I   I347      1.0  0.18017  0.80113  0.23870  1.0000
  I   I348      1.0  0.06402  0.81880  0.71234  1.0000
  I   I349      1.0  0.34517  0.14965  0.11908  1.0000
  I   I350      1.0  0.26226  0.26612  0.47925  1.0000
  I   I351      1.0  0.34082  0.06122  0.68031  1.0000
  I   I352      1.0  0.35517  0.42637  0.55491  1.0000
  I   I353      1.0  0.25831  0.58487  0.89886  1.0000
  I   I354      1.0  0.24391  0.59809  0.37897  1.0000
  I   I355      1.0  0.32048  0.78234  0.33070  1.0000
  I   I356      1.0  0.66957  0.62905  0.58912  1.0000
  I   I357      1.0  0.36363  0.69299  0.66896  1.0000
  I   I358      1.0  0.43628  0.76964  0.76111  1.0000
  I   I359      1.0  0.64938  0.81716  0.64572  1.0000
  I   I360      1.0  0.52316  0.85525  0.04081  1.0000
  I   I361      1.0  0.51860  0.18208  0.49422  1.0000
  I   I362      1.0  0.40881  0.23263  0.76758  1.0000
  I   I363      1.0  0.33741  0.33461  0.13789  1.0000
  I   I364      1.0  0.42860  0.62667  0.92597  1.0000
  I   I365      1.0  0.44609  0.51143  0.44002  1.0000
  I   I366      1.0  0.65165  0.43307  0.89959  1.0000
  I   I367      1.0  0.88620  0.51061  0.15531  1.0000
  I   I368      1.0  0.90403  0.49844  0.43904  1.0000
  I   I369      1.0  0.90205  0.46778  0.87246  1.0000
  I   I370      1.0  0.68088  0.75472  0.91147  1.0000
  I   I371      1.0  0.64813  0.65870  0.25838  1.0000
  I   I372      1.0  0.83731  0.69822  0.36736  1.0000
  I   I373      1.0  0.63374  0.19094  0.09344  1.0000
  I   I374      1.0  0.81407  0.18604  0.23802  1.0000
  I   I375      1.0  0.73788  0.25646  0.60092  1.0000
  I   I376      1.0  0.91985  0.35922  0.96714  1.0000
  I   I377      1.0  0.89185  0.34077  0.54597  1.0000
  I   I378      1.0  0.11403  0.93033  0.54395  1.0000
  I   I379      1.0  0.08270  0.56995  0.05210  1.0000
  I   I380      1.0  0.02649  0.42265  0.35759  1.0000
  I   I381      1.0  0.98607  0.58428  0.64842  1.0000
  I   I382      1.0  0.66788  0.99725  0.16389  1.0000
  I   I383      1.0  0.63369  0.01132  0.48763  1.0000
  I   I384      1.0  0.57006  0.03663  0.74912  1.0000
