data_image0
_chemical_formula_structural       Ti96I384
_chemical_formula_sum              "Ti96 I384"
_cell_length_a       70.2571
_cell_length_b       69.9175
_cell_length_c       34.2543
_cell_angle_alpha    88.7757
_cell_angle_beta     88.7757
_cell_angle_gamma    62.1586

_space_group_name_H-M_alt    "P 1"
_space_group_IT_number       1

loop_
  _space_group_symop_operation_xyz
  'x, y, z'

loop_
  _atom_site_type_symbol
  _atom_site_label
  _atom_site_symmetry_multiplicity
  _atom_site_fract_x
  _atom_site_fract_y
  _atom_site_fract_z
  _atom_site_occupancy
  Ti  Ti1       1.0  0.04401  0.97237  0.35910  1.0000
  Ti  Ti2       1.0  0.04031  0.11317  0.24125  1.0000
  Ti  Ti3       1.0  0.40957  0.02166  0.27592  1.0000
  Ti  Ti4       1.0  0.99980  0.32120  0.52874  1.0000
  Ti  Ti5       1.0  0.39341  0.59406  0.25052  1.0000
  Ti  Ti6       1.0  0.73082  0.97307  0.05713  1.0000
  Ti  Ti7       1.0  0.84276  0.69466  0.61543  1.0000
  Ti  Ti8       1.0  0.27958  0.52268  0.52178  1.0000
  Ti  Ti9       1.0  0.43958  0.08161  0.53996  1.0000
  Ti  Ti10      1.0  0.33958  0.47919  0.87454  1.0000
  Ti  Ti11      1.0  0.25149  0.27119  0.77904  1.0000
  Ti  Ti12      1.0  0.77059  0.74804  0.96534  1.0000
  Ti  Ti13      1.0  0.82447  0.30115  0.63962  1.0000
  Ti  Ti14      1.0  0.80896  0.15174  0.70123  1.0000
  Ti  Ti15      1.0  0.68061  0.70463  0.88064  1.0000
  Ti  Ti16      1.0  0.34195  0.47692  0.76805  1.0000
  Ti  Ti17      1.0  0.31665  0.88317  0.38799  1.0000
  Ti  Ti18      1.0  0.48509  0.84582  0.56837  1.0000
  Ti  Ti19      1.0  0.47690  0.58822  0.48372  1.0000
  Ti  Ti20      1.0  0.55573  0.17918  0.76947  1.0000
  Ti  Ti21      1.0  0.23408  0.56174  0.47564  1.0000
  Ti  Ti22      1.0  0.53509  0.95329  0.49096  1.0000
  Ti  Ti23      1.0  0.22381  0.18070  0.28328  1.0000
  Ti  Ti24      1.0  0.14364  0.80184  0.89151  1.0000
  Ti  Ti25      1.0  0.37660  0.20661  0.67028  1.0000
  Ti  Ti26      1.0  0.91080  0.95187  0.03332  1.0000
  Ti  Ti27      1.0  0.81178  0.16465  0.24428  1.0000
  Ti  Ti28      1.0  0.49666  0.90340  0.81926  1.0000
  Ti  Ti29      1.0  0.09294  0.76248  0.73413  1.0000
  Ti  Ti30      1.0  0.32804  0.88362  0.69503  1.0000
  Ti  Ti31      1.0  0.99981  0.53991  0.59372  1.0000
  Ti  Ti32      1.0  0.33414  0.89643  0.04782  1.0000
  Ti  Ti33      1.0  0.23937  0.76657  0.29140  1.0000
  Ti  Ti34      1.0  0.58630  0.37841  0.87253  1.0000
  Ti  Ti35      1.0  0.86454  0.51980  0.78098  1.0000
  Ti  Ti36      1.0  0.10504  0.20920  0.97923  1.0000
  Ti  Ti37      1.0  0.26039  0.16692  0.58807  1.0000
  Ti  Ti38      1.0  0.70098  0.34737  0.10295  1.0000
  Ti  Ti39      1.0  0.95733  0.56206  0.16712  1.0000
  Ti  Ti40      1.0  0.75337  0.54075  0.15147  1.0000
  Ti  Ti41      1.0  0.49495  0.17866  0.51646  1.0000
  Ti  Ti42      1.0  0.14332  0.90960  0.74515  1.0000
  Ti  Ti43      1.0  0.07792  0.20237  0.48453  1.0000
  Ti  Ti44      1.0  0.58998  0.01849  0.70641  1.0000
  Ti  Ti45      1.0  0.25324  0.27805  0.11058  1.0000
  Ti  Ti46      1.0  0.57487  0.61211  0.15375  1.0000
  Ti  Ti47      1.0  0.61717  0.33251  0.58165  1.0000
  Ti  Ti48      1.0  0.88970  0.03246  0.20477  1.0000
  Ti  Ti49      1.0  0.08475  0.06960  0.75805  1.0000
  Ti  Ti50      1.0  0.21181  0.31781  0.58439  1.0000
  Ti  Ti51      1.0  0.99105  0.13900  0.17708  1.0000
  Ti  Ti52      1.0  0.61793  0.17274  0.02208  1.0000
  Ti  Ti53      1.0  0.39745  0.73527  0.21103  1.0000
  Ti  Ti54      1.0  0.94350  0.81949  0.41575  1.0000
  Ti  Ti55      1.0  0.79705  0.75230  0.53773  1.0000
  Ti  Ti56      1.0  0.53497  0.27418  0.43381  1.0000
  Ti  Ti57      1.0  0.44290  0.11763  0.48156  1.0000
  Ti  Ti58      1.0  0.71612  0.26276  0.60886  1.0000
  Ti  Ti59      1.0  0.69802  0.23717  0.93720  1.0000
  Ti  Ti60      1.0  0.82077  0.72447  0.04874  1.0000
  Ti  Ti61      1.0  0.62834  0.72536  0.82114  1.0000
  Ti  Ti62      1.0  0.83681  0.33674  0.65147  1.0000
  Ti  Ti63      1.0  0.75068  0.12161  0.48137  1.0000
  Ti  Ti64      1.0  0.45123  0.85830  0.62122  1.0000
  Ti  Ti65      1.0  0.79190  0.84763  0.32817  1.0000
  Ti  Ti66      1.0  0.44369  0.28041  0.90762  1.0000
  Ti  Ti67      1.0  0.71753  0.79571  0.97360  1.0000
  Ti  Ti68      1.0  0.47397  0.58369  0.37053  1.0000
  Ti  Ti69      1.0  0.90906  0.92180  0.97588  1.0000
  Ti  Ti70      1.0  0.66694  0.77667  0.06712  1.0000
  Ti  Ti71      1.0  0.27584  0.13204  0.28534  1.0000
  Ti  Ti72      1.0  0.57300  0.31317  0.61896  1.0000
  Ti  Ti73      1.0  0.74817  0.18800  0.25397  1.0000
  Ti  Ti74      1.0  0.36072  0.18070  0.72133  1.0000
  Ti  Ti75      1.0  0.43415  0.81697  0.02019  1.0000
  Ti  Ti76      1.0  0.30356  0.95230  0.72233  1.0000
  Ti  Ti77      1.0  0.49902  0.93270  0.91907  1.0000
  Ti  Ti78      1.0  0.07148  0.80692  0.63523  1.0000
  Ti  Ti79      1.0  0.58218  0.74178  0.30242  1.0000
  Ti  Ti80      1.0  0.92253  0.34820  0.58316  1.0000
  Ti  Ti81      1.0  0.31633  0.96436  0.04909  1.0000
  Ti  Ti82      1.0  0.40792  0.23900  0.10614  1.0000
  Ti  Ti83      1.0  0.84482  0.50656  0.72283  1.0000
  Ti  Ti84      1.0  0.11806  0.16813  0.03701  1.0000
  Ti  Ti85      1.0  0.21754  0.19392  0.55329  1.0000
  Ti  Ti86      1.0  0.37958  0.31659  0.83146  1.0000
  Ti  Ti87      1.0  0.19701  0.28572  0.09523  1.0000
  Ti  Ti88      1.0  0.58621  0.22250  0.97150  1.0000
  Ti  Ti89      1.0  0.51265  0.22365  0.55376  1.0000
  Ti  Ti90      1.0  0.19672  0.88345  0.82616  1.0000
  Ti  Ti91      1.0  0.20885  0.51817  0.15714  1.0000
  Ti  Ti92      1.0  0.38138  0.59777  0.97130  1.0000
  Ti  Ti93      1.0  0.07473  0.69110  0.13003  1.0000
  Ti  Ti94      1.0  0.90089  0.00224  0.31960  1.0000
  Ti  Ti95      1.0  0.62387  0.47560  0.88664  1.0000
  Ti  Ti96      1.0  0.68687  0.61110  0.89641  1.0000
  I   I1        1.0  0.65061  0.31489  0.53100  1.0000
  I   I2        1.0  0.01132  0.10171  0.21210  1.0000
  I   I3        1.0  0.11088  0.05617  0.70233  1.0000
  I   I4        1.0  0.38705  0.77638  0.19383  1.0000
  I   I5        1.0  0.76414  0.97569  0.03757  1.0000
  I   I6        1.0  0.95801  0.83129  0.35229  1.0000
  I   I7        1.0  0.19763  0.56197  0.46852  1.0000
  I   I8        1.0  0.54493  0.23717  0.47886  1.0000
  I   I9        1.0  0.42642  0.12585  0.40446  1.0000
  I   I10       1.0  0.37133  0.44680  0.72811  1.0000
  I   I11       1.0  0.28477  0.27501  0.75707  1.0000
  I   I12       1.0  0.40463  0.55802  0.28774  1.0000
  I   I13       1.0  0.78243  0.32135  0.63989  1.0000
  I   I14       1.0  0.73044  0.11159  0.42552  1.0000
  I   I15       1.0  0.70376  0.71719  0.83141  1.0000
  I   I16       1.0  0.31478  0.50182  0.71849  1.0000
  I   I17       1.0  0.47149  0.28612  0.94483  1.0000
  I   I18       1.0  0.51381  0.85850  0.55255  1.0000
  I   I19       1.0  0.56182  0.21272  0.77941  1.0000
  I   I20       1.0  0.24092  0.30659  0.81495  1.0000
  I   I21       1.0  0.23706  0.53799  0.56524  1.0000
  I   I22       1.0  0.18317  0.18522  0.30293  1.0000
  I   I23       1.0  0.26960  0.17735  0.25852  1.0000
  I   I24       1.0  0.69068  0.76264  0.13061  1.0000
  I   I25       1.0  0.35818  0.14555  0.69503  1.0000
  I   I26       1.0  0.47247  0.79532  0.99468  1.0000
  I   I27       1.0  0.78377  0.16584  0.29537  1.0000
  I   I28       1.0  0.51972  0.89836  0.75521  1.0000
  I   I29       1.0  0.10557  0.80884  0.60548  1.0000
  I   I30       1.0  0.33779  0.86938  0.62605  1.0000
  I   I31       1.0  0.88755  0.38478  0.59625  1.0000
  I   I32       1.0  0.29861  0.93869  0.06781  1.0000
  I   I33       1.0  0.60759  0.70868  0.26437  1.0000
  I   I34       1.0  0.85430  0.56078  0.78736  1.0000
  I   I35       1.0  0.12772  0.17270  0.11275  1.0000
  I   I36       1.0  0.57467  0.38017  0.94371  1.0000
  I   I37       1.0  0.22357  0.20713  0.62591  1.0000
  I   I38       1.0  0.98494  0.53953  0.23062  1.0000
  I   I39       1.0  0.22965  0.15715  0.59745  1.0000
  I   I40       1.0  0.50691  0.15204  0.45354  1.0000
  I   I41       1.0  0.17631  0.87013  0.76955  1.0000
  I   I42       1.0  0.72819  0.52330  0.13909  1.0000
  I   I43       1.0  0.72448  0.26634  0.53324  1.0000
  I   I44       1.0  0.57137  0.05487  0.75353  1.0000
  I   I45       1.0  0.22103  0.31241  0.07096  1.0000
  I   I46       1.0  0.64219  0.43333  0.88239  1.0000
  I   I47       1.0  0.59736  0.36989  0.53957  1.0000
  I   I48       1.0  0.92282  0.02167  0.15361  1.0000
  I   I49       1.0  0.09902  0.07305  0.82496  1.0000
  I   I50       1.0  0.95570  0.14130  0.20812  1.0000
  I   I51       1.0  0.99221  0.16854  0.13020  1.0000
  I   I52       1.0  0.91721  0.33751  0.65236  1.0000
  I   I53       1.0  0.43776  0.71262  0.19008  1.0000
  I   I54       1.0  0.94110  0.84604  0.46530  1.0000
  I   I55       1.0  0.82230  0.67803  0.65614  1.0000
  I   I56       1.0  0.23298  0.57179  0.40170  1.0000
  I   I57       1.0  0.41375  0.09778  0.60966  1.0000
  I   I58       1.0  0.37715  0.44262  0.87039  1.0000
  I   I59       1.0  0.69103  0.27497  0.91543  1.0000
  I   I60       1.0  0.79868  0.70408  0.01253  1.0000
  I   I61       1.0  0.83941  0.35490  0.58095  1.0000
  I   I62       1.0  0.83556  0.26806  0.68621  1.0000
  I   I63       1.0  0.74728  0.09760  0.53811  1.0000
  I   I64       1.0  0.30075  0.50592  0.81981  1.0000
  I   I65       1.0  0.79629  0.80797  0.33991  1.0000
  I   I66       1.0  0.45198  0.23942  0.91505  1.0000
  I   I67       1.0  0.50730  0.58878  0.53345  1.0000
  I   I68       1.0  0.58253  0.16381  0.70999  1.0000
  I   I69       1.0  0.92937  0.88833  0.92366  1.0000
  I   I70       1.0  0.69690  0.73775  0.03134  1.0000
  I   I71       1.0  0.22964  0.14481  0.25080  1.0000
  I   I72       1.0  0.57947  0.35123  0.63201  1.0000
  I   I73       1.0  0.72026  0.17413  0.25930  1.0000
  I   I74       1.0  0.87334  0.98671  0.01707  1.0000
  I   I75       1.0  0.93284  0.94750  0.96512  1.0000
  I   I76       1.0  0.49458  0.94262  0.99690  1.0000
  I   I77       1.0  0.52399  0.92593  0.84509  1.0000
  I   I78       1.0  0.06265  0.95775  0.28600  1.0000
  I   I79       1.0  0.26155  0.73593  0.34047  1.0000
  I   I80       1.0  0.98098  0.54654  0.66548  1.0000
  I   I81       1.0  0.35295  0.92530  0.01690  1.0000
  I   I82       1.0  0.37537  0.26887  0.05535  1.0000
  I   I83       1.0  0.87765  0.51655  0.70711  1.0000
  I   I84       1.0  0.07634  0.21858  0.03736  1.0000
  I   I85       1.0  0.25284  0.19731  0.52310  1.0000
  I   I86       1.0  0.34852  0.33293  0.87913  1.0000
  I   I87       1.0  0.91523  0.58641  0.19034  1.0000
  I   I88       1.0  0.76028  0.54734  0.08030  1.0000
  I   I89       1.0  0.47097  0.23627  0.56482  1.0000
  I   I90       1.0  0.22042  0.90040  0.85500  1.0000
  I   I91       1.0  0.19912  0.50638  0.09180  1.0000
  I   I92       1.0  0.38899  0.62854  0.99261  1.0000
  I   I93       1.0  0.55140  0.02660  0.68871  1.0000
  I   I94       1.0  0.94284  0.98495  0.33613  1.0000
  I   I95       1.0  0.56933  0.64690  0.11991  1.0000
  I   I96       1.0  0.68400  0.57515  0.88522  1.0000
  I   I97       1.0  0.40930  0.99805  0.21972  1.0000
  I   I98       1.0  0.08065  0.95571  0.39083  1.0000
  I   I99       1.0  0.07932  0.07836  0.22281  1.0000
  I   I100      1.0  0.00226  0.34378  0.46451  1.0000
  I   I101      1.0  0.62879  0.17105  0.10013  1.0000
  I   I102      1.0  0.36660  0.63554  0.25051  1.0000
  I   I103      1.0  0.85084  0.72785  0.57637  1.0000
  I   I104      1.0  0.75657  0.77970  0.52312  1.0000
  I   I105      1.0  0.46403  0.06516  0.47511  1.0000
  I   I106      1.0  0.73554  0.75825  0.02804  1.0000
  I   I107      1.0  0.31178  0.48013  0.92757  1.0000
  I   I108      1.0  0.82476  0.76128  0.03615  1.0000
  I   I109      1.0  0.71652  0.67925  0.91552  1.0000
  I   I110      1.0  0.86810  0.29047  0.64671  1.0000
  I   I111      1.0  0.72561  0.16345  0.47415  1.0000
  I   I112      1.0  0.49260  0.84143  0.64797  1.0000
  I   I113      1.0  0.76776  0.87561  0.27808  1.0000
  I   I114      1.0  0.32226  0.89644  0.45506  1.0000
  I   I115      1.0  0.67714  0.79156  0.99431  1.0000
  I   I116      1.0  0.70276  0.79477  0.90130  1.0000
  I   I117      1.0  0.47099  0.55936  0.43545  1.0000
  I   I118      1.0  0.52602  0.92324  0.50451  1.0000
  I   I119      1.0  0.63921  0.81207  0.10364  1.0000
  I   I120      1.0  0.57369  0.27706  0.59724  1.0000
  I   I121      1.0  0.78521  0.16485  0.19180  1.0000
  I   I122      1.0  0.41576  0.20205  0.67789  1.0000
  I   I123      1.0  0.40869  0.80245  0.99182  1.0000
  I   I124      1.0  0.36596  0.86838  0.71737  1.0000
  I   I125      1.0  0.46118  0.93629  0.79778  1.0000
  I   I126      1.0  0.13099  0.74429  0.75537  1.0000
  I   I127      1.0  0.25502  0.79163  0.30321  1.0000
  I   I128      1.0  0.97319  0.31103  0.56068  1.0000
  I   I129      1.0  0.32351  0.86954  0.08299  1.0000
  I   I130      1.0  0.08926  0.14790  0.04859  1.0000
  I   I131      1.0  0.41266  0.27673  0.09933  1.0000
  I   I132      1.0  0.80653  0.49890  0.72552  1.0000
  I   I133      1.0  0.95986  0.53734  0.11471  1.0000
  I   I134      1.0  0.74253  0.33366  0.10625  1.0000
  I   I135      1.0  0.46063  0.27402  0.83899  1.0000
  I   I136      1.0  0.23219  0.84622  0.82915  1.0000
  I   I137      1.0  0.59838  0.23493  0.90414  1.0000
  I   I138      1.0  0.50507  0.20924  0.48134  1.0000
  I   I139      1.0  0.17924  0.55272  0.18248  1.0000
  I   I140      1.0  0.34662  0.61231  0.92630  1.0000
  I   I141      1.0  0.08492  0.65838  0.17886  1.0000
  I   I142      1.0  0.89107  0.97445  0.34545  1.0000
  I   I143      1.0  0.54684  0.63126  0.21248  1.0000
  I   I144      1.0  0.71308  0.61750  0.93808  1.0000
  I   I145      1.0  0.01306  0.95929  0.35851  1.0000
  I   I146      1.0  0.06671  0.13260  0.23799  1.0000
  I   I147      1.0  0.41239  0.99610  0.33744  1.0000
  I   I148      1.0  0.64967  0.13596  0.00807  1.0000
  I   I149      1.0  0.37540  0.59181  0.18395  1.0000
  I   I150      1.0  0.72893  0.94403  0.10103  1.0000
  I   I151      1.0  0.79317  0.78475  0.58234  1.0000
  I   I152      1.0  0.31752  0.51610  0.54700  1.0000
  I   I153      1.0  0.47693  0.11724  0.47518  1.0000
  I   I154      1.0  0.10894  0.21068  0.44706  1.0000
  I   I155      1.0  0.23625  0.26562  0.71257  1.0000
  I   I156      1.0  0.86120  0.69266  0.03387  1.0000
  I   I157      1.0  0.65813  0.73637  0.93470  1.0000
  I   I158      1.0  0.79195  0.10581  0.45760  1.0000
  I   I159      1.0  0.60207  0.75595  0.86084  1.0000
  I   I160      1.0  0.44525  0.84573  0.54450  1.0000
  I   I161      1.0  0.28660  0.86943  0.40697  1.0000
  I   I162      1.0  0.45850  0.89185  0.57609  1.0000
  I   I163      1.0  0.47752  0.56381  0.54783  1.0000
  I   I164      1.0  0.43172  0.59913  0.35122  1.0000
  I   I165      1.0  0.27026  0.56833  0.50190  1.0000
  I   I166      1.0  0.51006  0.99156  0.51467  1.0000
  I   I167      1.0  0.24609  0.16433  0.34560  1.0000
  I   I168      1.0  0.17169  0.78175  0.82873  1.0000
  I   I169      1.0  0.33283  0.20766  0.66769  1.0000
  I   I170      1.0  0.40108  0.15851  0.72058  1.0000
  I   I171      1.0  0.73899  0.21668  0.31237  1.0000
  I   I172      1.0  0.31013  0.98564  0.69572  1.0000
  I   I173      1.0  0.04650  0.82356  0.57312  1.0000
  I   I174      1.0  0.29219  0.91069  0.74579  1.0000
  I   I175      1.0  0.96225  0.56122  0.56353  1.0000
  I   I176      1.0  0.37469  0.86722  0.05173  1.0000
  I   I177      1.0  0.57629  0.76726  0.23283  1.0000
  I   I178      1.0  0.40265  0.21972  0.17362  1.0000
  I   I179      1.0  0.83042  0.51018  0.65129  1.0000
  I   I180      1.0  0.10241  0.24694  0.97506  1.0000
  I   I181      1.0  0.17665  0.21726  0.57009  1.0000
  I   I182      1.0  0.40909  0.32328  0.87888  1.0000
  I   I183      1.0  0.22555  0.27313  0.16499  1.0000
  I   I184      1.0  0.62501  0.17853  0.94758  1.0000
  I   I185      1.0  0.52967  0.17708  0.56342  1.0000
  I   I186      1.0  0.10860  0.95308  0.73935  1.0000
  I   I187      1.0  0.40437  0.57674  0.91544  1.0000
  I   I188      1.0  0.60939  0.01803  0.64056  1.0000
  I   I189      1.0  0.27631  0.28941  0.06082  1.0000
  I   I190      1.0  0.61928  0.59827  0.15194  1.0000
  I   I191      1.0  0.24931  0.28207  0.55955  1.0000
  I   I192      1.0  0.87350  0.07239  0.18025  1.0000
  I   I193      1.0  0.05231  0.79146  0.69808  1.0000
  I   I194      1.0  0.17747  0.31631  0.61725  1.0000
  I   I195      1.0  0.37204  0.04524  0.30194  1.0000
  I   I196      1.0  0.03760  0.28538  0.51839  1.0000
  I   I197      1.0  0.70085  0.23619  0.61216  1.0000
  I   I198      1.0  0.70632  0.01460  0.07622  1.0000
  I   I199      1.0  0.79239  0.72241  0.59155  1.0000
  I   I200      1.0  0.49448  0.30308  0.44003  1.0000
  I   I201      1.0  0.40488  0.09691  0.48668  1.0000
  I   I202      1.0  0.73578  0.21142  0.94791  1.0000
  I   I203      1.0  0.89611  0.89392  0.00375  1.0000
  I   I204      1.0  0.81498  0.71610  0.12164  1.0000
  I   I205      1.0  0.81398  0.32178  0.71305  1.0000
  I   I206      1.0  0.79383  0.12413  0.68707  1.0000
  I   I207      1.0  0.61719  0.74725  0.75235  1.0000
  I   I208      1.0  0.33204  0.44812  0.82459  1.0000
  I   I209      1.0  0.35875  0.86055  0.35826  1.0000
  I   I210      1.0  0.61072  0.75787  0.30658  1.0000
  I   I211      1.0  0.69809  0.83745  0.97168  1.0000
  I   I212      1.0  0.52241  0.17979  0.79940  1.0000
  I   I213      1.0  0.87466  0.94589  0.93310  1.0000
  I   I214      1.0  0.57117  0.94609  0.51964  1.0000
  I   I215      1.0  0.28059  0.10074  0.32923  1.0000
  I   I216      1.0  0.10757  0.83469  0.87191  1.0000
  I   I217      1.0  0.36085  0.24530  0.63258  1.0000
  I   I218      1.0  0.42188  0.85283  0.98819  1.0000
  I   I219      1.0  0.84501  0.15630  0.19134  1.0000
  I   I220      1.0  0.49301  0.89884  0.89568  1.0000
  I   I221      1.0  0.08684  0.72831  0.72109  1.0000
  I   I222      1.0  0.32839  0.92683  0.66569  1.0000
  I   I223      1.0  0.02964  0.54757  0.55998  1.0000
  I   I224      1.0  0.32270  0.97431  0.12176  1.0000
  I   I225      1.0  0.25133  0.75330  0.22101  1.0000
  I   I226      1.0  0.39925  0.22244  0.04309  1.0000
  I   I227      1.0  0.90039  0.49935  0.82786  1.0000
  I   I228      1.0  0.12090  0.15850  0.95127  1.0000
  I   I229      1.0  0.26614  0.16069  0.66732  1.0000
  I   I230      1.0  0.69235  0.31559  0.07916  1.0000
  I   I231      1.0  0.98175  0.58396  0.16547  1.0000
  I   I232      1.0  0.81421  0.16300  0.76904  1.0000
  I   I233      1.0  0.45081  0.19244  0.50348  1.0000
  I   I234      1.0  0.17335  0.87646  0.87982  1.0000
  I   I235      1.0  0.04427  0.22541  0.44975  1.0000
  I   I236      1.0  0.03258  0.72003  0.12745  1.0000
  I   I237      1.0  0.23777  0.52778  0.12098  1.0000
  I   I238      1.0  0.58451  0.49591  0.91647  1.0000
  I   I239      1.0  0.68928  0.62524  0.82509  1.0000
  I   I240      1.0  0.89368  0.02731  0.38496  1.0000
  I   I241      1.0  0.05270  0.10558  0.74627  1.0000
  I   I242      1.0  0.03992  0.10341  0.31510  1.0000
  I   I243      1.0  0.43109  0.04564  0.27116  1.0000
  I   I244      1.0  0.62389  0.21470  0.01775  1.0000
  I   I245      1.0  0.40298  0.73408  0.28926  1.0000
  I   I246      1.0  0.70837  0.96943  0.00402  1.0000
  I   I247      1.0  0.86086  0.69819  0.67976  1.0000
  I   I248      1.0  0.27121  0.51845  0.44760  1.0000
  I   I249      1.0  0.45905  0.10033  0.57421  1.0000
  I   I250      1.0  0.67712  0.24497  0.00249  1.0000
  I   I251      1.0  0.24083  0.24611  0.82461  1.0000
  I   I252      1.0  0.76252  0.73240  0.90341  1.0000
  I   I253      1.0  0.86272  0.34548  0.68467  1.0000
  I   I254      1.0  0.84602  0.13322  0.66027  1.0000
  I   I255      1.0  0.67154  0.69289  0.80179  1.0000
  I   I256      1.0  0.83433  0.84326  0.33233  1.0000
  I   I257      1.0  0.28714  0.91096  0.32987  1.0000
  I   I258      1.0  0.44555  0.82498  0.63638  1.0000
  I   I259      1.0  0.75462  0.79225  0.01362  1.0000
  I   I260      1.0  0.46680  0.61954  0.41439  1.0000
  I   I261      1.0  0.28626  0.48330  0.53187  1.0000
  I   I262      1.0  0.53783  0.96177  0.41883  1.0000
  I   I263      1.0  0.21488  0.22301  0.27184  1.0000
  I   I264      1.0  0.17169  0.80172  0.94304  1.0000
  I   I265      1.0  0.38264  0.17887  0.61230  1.0000
  I   I266      1.0  0.94583  0.91861  0.06645  1.0000
  I   I267      1.0  0.73186  0.22160  0.20936  1.0000
  I   I268      1.0  0.46539  0.96761  0.89449  1.0000
  I   I269      1.0  0.06636  0.84383  0.66567  1.0000
  I   I270      1.0  0.30540  0.96635  0.79339  1.0000
  I   I271      1.0  0.01521  0.49643  0.59765  1.0000
  I   I272      1.0  0.27628  0.99530  0.04155  1.0000
  I   I273      1.0  0.19643  0.78614  0.28021  1.0000
  I   I274      1.0  0.62544  0.34859  0.87174  1.0000
  I   I275      1.0  0.81976  0.55095  0.74536  1.0000
  I   I276      1.0  0.15382  0.13166  0.04051  1.0000
  I   I277      1.0  0.45182  0.21928  0.09490  1.0000
  I   I278      1.0  0.67967  0.37659  0.15675  1.0000
  I   I279      1.0  0.17235  0.26880  0.10293  1.0000
  I   I280      1.0  0.56693  0.22041  0.03855  1.0000
  I   I281      1.0  0.49379  0.15693  0.58037  1.0000
  I   I282      1.0  0.16009  0.91780  0.68493  1.0000
  I   I283      1.0  0.08547  0.16443  0.45733  1.0000
  I   I284      1.0  0.07847  0.72049  0.16887  1.0000
  I   I285      1.0  0.28332  0.27130  0.16420  1.0000
  I   I286      1.0  0.62258  0.48804  0.81423  1.0000
  I   I287      1.0  0.64009  0.33791  0.63440  1.0000
  I   I288      1.0  0.86787  0.03218  0.27032  1.0000
  I   I289      1.0  0.06114  0.05017  0.76651  1.0000
  I   I290      1.0  0.22467  0.33354  0.63963  1.0000
  I   I291      1.0  0.00228  0.15626  0.23264  1.0000
  I   I292      1.0  0.59202  0.15603  0.02145  1.0000
  I   I293      1.0  0.37821  0.71630  0.18009  1.0000
  I   I294      1.0  0.97005  0.78238  0.43931  1.0000
  I   I295      1.0  0.88074  0.66331  0.59374  1.0000
  I   I296      1.0  0.54566  0.29275  0.49139  1.0000
  I   I297      1.0  0.44606  0.03997  0.56091  1.0000
  I   I298      1.0  0.70628  0.29954  0.63966  1.0000
  I   I299      1.0  0.35129  0.50852  0.89355  1.0000
  I   I300      1.0  0.81456  0.73700  0.96714  1.0000
  I   I301      1.0  0.60548  0.70774  0.78715  1.0000
  I   I302      1.0  0.83518  0.28534  0.56986  1.0000
  I   I303      1.0  0.73112  0.56340  0.21312  1.0000
  I   I304      1.0  0.51278  0.80307  0.54730  1.0000
  I   I305      1.0  0.36967  0.49239  0.76629  1.0000
  I   I306      1.0  0.40142  0.28055  0.87961  1.0000
  I   I307      1.0  0.49769  0.57493  0.30682  1.0000
  I   I308      1.0  0.58573  0.14790  0.80791  1.0000
  I   I309      1.0  0.22014  0.59905  0.50561  1.0000
  I   I310      1.0  0.07391  0.20244  0.56008  1.0000
  I   I311      1.0  0.30797  0.13775  0.31439  1.0000
  I   I312      1.0  0.59860  0.29082  0.67249  1.0000
  I   I313      1.0  0.84947  0.13540  0.28780  1.0000
  I   I314      1.0  0.35618  0.22577  0.74789  1.0000
  I   I315      1.0  0.43898  0.82835  0.09078  1.0000
  I   I316      1.0  0.26274  0.96747  0.70754  1.0000
  I   I317      1.0  0.48517  0.87324  0.80378  1.0000
  I   I318      1.0  0.10245  0.76257  0.64063  1.0000
  I   I319      1.0  0.54057  0.75609  0.28806  1.0000
  I   I320      1.0  0.01097  0.34031  0.58185  1.0000
  I   I321      1.0  0.31850  0.90577  0.98038  1.0000
  I   I322      1.0  0.59080  0.41121  0.85179  1.0000
  I   I323      1.0  0.86339  0.47763  0.78330  1.0000
  I   I324      1.0  0.14367  0.18589  0.02114  1.0000
  I   I325      1.0  0.29154  0.13305  0.55133  1.0000
  I   I326      1.0  0.38442  0.34678  0.79465  1.0000
  I   I327      1.0  0.21345  0.27721  0.02266  1.0000
  I   I328      1.0  0.78787  0.51947  0.19129  1.0000
  I   I329      1.0  0.51389  0.22756  0.62981  1.0000
  I   I330      1.0  0.16205  0.92759  0.79335  1.0000
  I   I331      1.0  0.25652  0.24109  0.08555  1.0000
  I   I332      1.0  0.75466  0.24040  0.64249  1.0000
  I   I333      1.0  0.60625  0.98058  0.74013  1.0000
  I   I334      1.0  0.86972  0.01630  0.15825  1.0000
  I   I335      1.0  0.55646  0.60429  0.09756  1.0000
  I   I336      1.0  0.64601  0.63023  0.91605  1.0000
  I   I337      1.0  0.02110  0.01386  0.36266  1.0000
  I   I338      1.0  0.19610  0.35431  0.54574  1.0000
  I   I339      1.0  0.97631  0.12866  0.10933  1.0000
  I   I340      1.0  0.90549  0.33243  0.53390  1.0000
  I   I341      1.0  0.42549  0.59204  0.20590  1.0000
  I   I342      1.0  0.90551  0.81924  0.41944  1.0000
  I   I343      1.0  0.81193  0.75433  0.46314  1.0000
  I   I344      1.0  0.55391  0.27847  0.37215  1.0000
  I   I345      1.0  0.41782  0.15480  0.50959  1.0000
  I   I346      1.0  0.64456  0.75577  0.08613  1.0000
  I   I347      1.0  0.67290  0.22959  0.88373  1.0000
  I   I348      1.0  0.75179  0.78495  0.90973  1.0000
  I   I349      1.0  0.64099  0.70001  0.89828  1.0000
  I   I350      1.0  0.79526  0.37037  0.62656  1.0000
  I   I351      1.0  0.78506  0.18370  0.65822  1.0000
  I   I352      1.0  0.42454  0.88852  0.66412  1.0000
  I   I353      1.0  0.77118  0.85403  0.39339  1.0000
  I   I354      1.0  0.37868  0.29469  0.76807  1.0000
  I   I355      1.0  0.43571  0.61324  0.49204  1.0000
  I   I356      1.0  0.51517  0.56132  0.41484  1.0000
  I   I357      1.0  0.91562  0.97045  0.09395  1.0000
  I   I358      1.0  0.13010  0.77479  0.91589  1.0000
  I   I359      1.0  0.28917  0.12026  0.21440  1.0000
  I   I360      1.0  0.53804  0.32110  0.65955  1.0000
  I   I361      1.0  0.79402  0.20694  0.23863  1.0000
  I   I362      1.0  0.33654  0.18944  0.78489  1.0000
  I   I363      1.0  0.87989  0.93874  0.05143  1.0000
  I   I364      1.0  0.31846  0.85648  0.73407  1.0000
  I   I365      1.0  0.53978  0.92124  0.94949  1.0000
  I   I366      1.0  0.07836  0.77078  0.80469  1.0000
  I   I367      1.0  0.58687  0.72097  0.37134  1.0000
  I   I368      1.0  0.95222  0.36006  0.60619  1.0000
  I   I369      1.0  0.32275  0.99323  0.00270  1.0000
  I   I370      1.0  0.56265  0.37344  0.82169  1.0000
  I   I371      1.0  0.83598  0.52334  0.83094  1.0000
  I   I372      1.0  0.07659  0.20788  0.92928  1.0000
  I   I373      1.0  0.20892  0.17958  0.48720  1.0000
  I   I374      1.0  0.69251  0.36048  0.02844  1.0000
  I   I375      1.0  0.16454  0.32353  0.08544  1.0000
  I   I376      1.0  0.55566  0.22586  0.92988  1.0000
  I   I377      1.0  0.49229  0.26871  0.55228  1.0000
  I   I378      1.0  0.12143  0.89061  0.72045  1.0000
  I   I379      1.0  0.23553  0.48551  0.19896  1.0000
  I   I380      1.0  0.38997  0.56403  0.01593  1.0000
  I   I381      1.0  0.08277  0.67755  0.05815  1.0000
  I   I382      1.0  0.91433  0.03226  0.27091  1.0000
  I   I383      1.0  0.63273  0.50498  0.91656  1.0000
  I   I384      1.0  0.59977  0.30861  0.55408  1.0000
