data_image0
_chemical_formula_structural       Ti96I384
_chemical_formula_sum              "Ti96 I384"
_cell_length_a       56.1601
_cell_length_b       56.6872
_cell_length_c       27.3555
_cell_angle_alpha    88.7757
_cell_angle_beta     88.7757
_cell_angle_gamma    62.1586

_space_group_name_H-M_alt    "P 1"
_space_group_IT_number       1

loop_
  _space_group_symop_operation_xyz
  'x, y, z'

loop_
  _atom_site_type_symbol
  _atom_site_label
  _atom_site_symmetry_multiplicity
  _atom_site_fract_x
  _atom_site_fract_y
  _atom_site_fract_z
  _atom_site_occupancy
  Ti  Ti1       1.0  0.89449  0.69687  0.05114  1.0000
  Ti  Ti2       1.0  0.87284  0.92904  0.09909  1.0000
  Ti  Ti3       1.0  0.94533  0.64721  0.48414  1.0000
  Ti  Ti4       1.0  0.31385  0.10228  0.37111  1.0000
  Ti  Ti5       1.0  0.99574  0.15292  0.06127  1.0000
  Ti  Ti6       1.0  0.12022  0.13262  0.30920  1.0000
  Ti  Ti7       1.0  0.96689  0.83149  0.52479  1.0000
  Ti  Ti8       1.0  0.05427  0.98910  0.50214  1.0000
  Ti  Ti9       1.0  0.73858  0.06247  0.77778  1.0000
  Ti  Ti10      1.0  0.37207  0.91629  0.11251  1.0000
  Ti  Ti11      1.0  0.33567  0.59481  0.69778  1.0000
  Ti  Ti12      1.0  0.83623  0.76029  0.79693  1.0000
  Ti  Ti13      1.0  0.43259  0.32651  0.67291  1.0000
  Ti  Ti14      1.0  0.21635  0.39783  0.35414  1.0000
  Ti  Ti15      1.0  0.26037  0.05759  0.02290  1.0000
  Ti  Ti16      1.0  0.16293  0.76697  0.27842  1.0000
  Ti  Ti17      1.0  0.22976  0.62647  0.15626  1.0000
  Ti  Ti18      1.0  0.07262  0.32610  0.18803  1.0000
  Ti  Ti19      1.0  0.64488  0.65494  0.35925  1.0000
  Ti  Ti20      1.0  0.73495  0.83129  0.16501  1.0000
  Ti  Ti21      1.0  0.30002  0.46225  0.12076  1.0000
  Ti  Ti22      1.0  0.47928  0.04301  0.52612  1.0000
  Ti  Ti23      1.0  0.58570  0.87023  0.87458  1.0000
  Ti  Ti24      1.0  0.56261  0.91228  0.51776  1.0000
  Ti  Ti25      1.0  0.25727  0.22133  0.78938  1.0000
  Ti  Ti26      1.0  0.23443  0.31649  0.68005  1.0000
  Ti  Ti27      1.0  0.24985  0.52305  0.37661  1.0000
  Ti  Ti28      1.0  0.52401  0.56714  0.54448  1.0000
  Ti  Ti29      1.0  0.74082  0.41474  0.47561  1.0000
  Ti  Ti30      1.0  0.82401  0.49407  0.57081  1.0000
  Ti  Ti31      1.0  0.62113  0.48739  0.12994  1.0000
  Ti  Ti32      1.0  0.86821  0.14385  0.42958  1.0000
  Ti  Ti33      1.0  0.89330  0.34903  0.95638  1.0000
  Ti  Ti34      1.0  0.98806  0.74173  0.32398  1.0000
  Ti  Ti35      1.0  0.73540  0.55148  0.87848  1.0000
  Ti  Ti36      1.0  0.12197  0.53504  0.71677  1.0000
  Ti  Ti37      1.0  0.71156  0.28218  0.18393  1.0000
  Ti  Ti38      1.0  0.52163  0.32729  0.32412  1.0000
  Ti  Ti39      1.0  0.33837  0.70046  0.23341  1.0000
  Ti  Ti40      1.0  0.30474  0.88209  0.83508  1.0000
  Ti  Ti41      1.0  0.62095  0.38679  0.74740  1.0000
  Ti  Ti42      1.0  0.48646  0.71446  0.10912  1.0000
  Ti  Ti43      1.0  0.82293  0.18927  0.95627  1.0000
  Ti  Ti44      1.0  0.90134  0.51395  0.30093  1.0000
  Ti  Ti45      1.0  0.04335  0.48059  0.36719  1.0000
  Ti  Ti46      1.0  0.57639  0.15213  0.52269  1.0000
  Ti  Ti47      1.0  0.43099  0.23662  0.31925  1.0000
  Ti  Ti48      1.0  0.51157  0.31309  0.97613  1.0000
  Ti  Ti49      1.0  0.90746  0.63472  0.09043  1.0000
  Ti  Ti50      1.0  0.78226  0.98655  0.13263  1.0000
  Ti  Ti51      1.0  0.91768  0.97762  0.10488  1.0000
  Ti  Ti52      1.0  0.29065  0.08850  0.49800  1.0000
  Ti  Ti53      1.0  0.04682  0.10424  0.97704  1.0000
  Ti  Ti54      1.0  0.11683  0.11110  0.45261  1.0000
  Ti  Ti55      1.0  0.98809  0.81880  0.65487  1.0000
  Ti  Ti56      1.0  0.05842  0.96868  0.64437  1.0000
  Ti  Ti57      1.0  0.75332  0.01437  0.65967  1.0000
  Ti  Ti58      1.0  0.15674  0.97012  0.21484  1.0000
  Ti  Ti59      1.0  0.43808  0.91750  0.17085  1.0000
  Ti  Ti60      1.0  0.87732  0.72662  0.71801  1.0000
  Ti  Ti61      1.0  0.24212  0.13575  0.04426  1.0000
  Ti  Ti62      1.0  0.43818  0.26168  0.75688  1.0000
  Ti  Ti63      1.0  0.25732  0.33622  0.32254  1.0000
  Ti  Ti64      1.0  0.12947  0.32405  0.10742  1.0000
  Ti  Ti65      1.0  0.19551  0.69513  0.25218  1.0000
  Ti  Ti66      1.0  0.26503  0.76602  0.70863  1.0000
  Ti  Ti67      1.0  0.68046  0.65707  0.44331  1.0000
  Ti  Ti68      1.0  0.73621  0.85735  0.28075  1.0000
  Ti  Ti69      1.0  0.31728  0.43685  0.00241  1.0000
  Ti  Ti70      1.0  0.52121  0.98404  0.42556  1.0000
  Ti  Ti71      1.0  0.66809  0.84430  0.80622  1.0000
  Ti  Ti72      1.0  0.51795  0.94712  0.85237  1.0000
  Ti  Ti73      1.0  0.19794  0.55046  0.33282  1.0000
  Ti  Ti74      1.0  0.27218  0.22561  0.65143  1.0000
  Ti  Ti75      1.0  0.14268  0.36761  0.68748  1.0000
  Ti  Ti76      1.0  0.85205  0.52671  0.67985  1.0000
  Ti  Ti77      1.0  0.43871  0.58851  0.58551  1.0000
  Ti  Ti78      1.0  0.77223  0.44390  0.57312  1.0000
  Ti  Ti79      1.0  0.88513  0.39790  0.88683  1.0000
  Ti  Ti80      1.0  0.60647  0.54747  0.20544  1.0000
  Ti  Ti81      1.0  0.87925  0.11006  0.31663  1.0000
  Ti  Ti82      1.0  0.02895  0.68421  0.20676  1.0000
  Ti  Ti83      1.0  0.71000  0.61650  0.83339  1.0000
  Ti  Ti84      1.0  0.05577  0.54916  0.62402  1.0000
  Ti  Ti85      1.0  0.72831  0.31332  0.10702  1.0000
  Ti  Ti86      1.0  0.57762  0.28963  0.41583  1.0000
  Ti  Ti87      1.0  0.33126  0.76359  0.22883  1.0000
  Ti  Ti88      1.0  0.35870  0.90351  0.83057  1.0000
  Ti  Ti89      1.0  0.57240  0.40538  0.64655  1.0000
  Ti  Ti90      1.0  0.48666  0.69425  0.95926  1.0000
  Ti  Ti91      1.0  0.09088  0.48640  0.25545  1.0000
  Ti  Ti92      1.0  0.79999  0.22966  0.72663  1.0000
  Ti  Ti93      1.0  0.97477  0.46478  0.34511  1.0000
  Ti  Ti94      1.0  0.48881  0.37397  0.90044  1.0000
  Ti  Ti95      1.0  0.56105  0.09533  0.57801  1.0000
  Ti  Ti96      1.0  0.40698  0.20103  0.25710  1.0000
  I   I1        1.0  0.76370  0.03042  0.08236  1.0000
  I   I2        1.0  0.88641  0.88729  0.03960  1.0000
  I   I3        1.0  0.92293  0.64188  0.99779  1.0000
  I   I4        1.0  0.98931  0.14155  0.97001  1.0000
  I   I5        1.0  0.07737  0.14022  0.51002  1.0000
  I   I6        1.0  0.13640  0.14287  0.40284  1.0000
  I   I7        1.0  0.10741  0.92927  0.66334  1.0000
  I   I8        1.0  0.01815  0.00809  0.59242  1.0000
  I   I9        1.0  0.72698  0.11083  0.79199  1.0000
  I   I10       1.0  0.38717  0.95696  0.12250  1.0000
  I   I11       1.0  0.29980  0.58344  0.73770  1.0000
  I   I12       1.0  0.19214  0.96887  0.15370  1.0000
  I   I13       1.0  0.45803  0.30726  0.75862  1.0000
  I   I14       1.0  0.26509  0.33811  0.22981  1.0000
  I   I15       1.0  0.23465  0.03022  0.03045  1.0000
  I   I16       1.0  0.13529  0.74086  0.24883  1.0000
  I   I17       1.0  0.28988  0.79392  0.71619  1.0000
  I   I18       1.0  0.17798  0.30562  0.13383  1.0000
  I   I19       1.0  0.68436  0.88155  0.24203  1.0000
  I   I20       1.0  0.32126  0.48269  0.18190  1.0000
  I   I21       1.0  0.26523  0.47075  0.03437  1.0000
  I   I22       1.0  0.68283  0.82148  0.72211  1.0000
  I   I23       1.0  0.55923  0.91174  0.80470  1.0000
  I   I24       1.0  0.58009  0.94576  0.45892  1.0000
  I   I25       1.0  0.26432  0.18703  0.68945  1.0000
  I   I26       1.0  0.18283  0.33158  0.62384  1.0000
  I   I27       1.0  0.23876  0.49749  0.44284  1.0000
  I   I28       1.0  0.49402  0.56244  0.62168  1.0000
  I   I29       1.0  0.79008  0.38843  0.54281  1.0000
  I   I30       1.0  0.81809  0.50590  0.67331  1.0000
  I   I31       1.0  0.67169  0.44921  0.16613  1.0000
  I   I32       1.0  0.89726  0.06609  0.36406  1.0000
  I   I33       1.0  0.92739  0.29932  0.96477  1.0000
  I   I34       1.0  0.71629  0.53490  0.95501  1.0000
  I   I35       1.0  0.04830  0.51471  0.68282  1.0000
  I   I36       1.0  0.00358  0.68385  0.12836  1.0000
  I   I37       1.0  0.72863  0.31812  0.22982  1.0000
  I   I38       1.0  0.29439  0.80434  0.26985  1.0000
  I   I39       1.0  0.69692  0.36702  0.09206  1.0000
  I   I40       1.0  0.58654  0.36682  0.72506  1.0000
  I   I41       1.0  0.48365  0.65461  0.00234  1.0000
  I   I42       1.0  0.35193  0.86241  0.78455  1.0000
  I   I43       1.0  0.79715  0.24082  0.94150  1.0000
  I   I44       1.0  0.94247  0.44854  0.31038  1.0000
  I   I45       1.0  0.05376  0.44232  0.43799  1.0000
  I   I46       1.0  0.61627  0.16343  0.52545  1.0000
  I   I47       1.0  0.42538  0.22620  0.40864  1.0000
  I   I48       1.0  0.47442  0.41491  0.95795  1.0000
  I   I49       1.0  0.89515  0.72173  0.97033  1.0000
  I   I50       1.0  0.85382  0.90924  0.16750  1.0000
  I   I51       1.0  0.87805  0.02843  0.09537  1.0000
  I   I52       1.0  0.26264  0.12337  0.55529  1.0000
  I   I53       1.0  0.98639  0.19224  0.12266  1.0000
  I   I54       1.0  0.07896  0.13711  0.36754  1.0000
  I   I55       1.0  0.99707  0.84795  0.46187  1.0000
  I   I56       1.0  0.07883  0.00156  0.61498  1.0000
  I   I57       1.0  0.78249  0.03958  0.68511  1.0000
  I   I58       1.0  0.45399  0.86733  0.19972  1.0000
  I   I59       1.0  0.32061  0.95282  0.12261  1.0000
  I   I60       1.0  0.86642  0.75652  0.87452  1.0000
  I   I61       1.0  0.48207  0.22272  0.79386  1.0000
  I   I62       1.0  0.40277  0.24300  0.73746  1.0000
  I   I63       1.0  0.24697  0.41436  0.39639  1.0000
  I   I64       1.0  0.20830  0.74804  0.33860  1.0000
  I   I65       1.0  0.24583  0.67633  0.26405  1.0000
  I   I66       1.0  0.22428  0.79217  0.76837  1.0000
  I   I67       1.0  0.67910  0.70321  0.46136  1.0000
  I   I68       1.0  0.77446  0.79403  0.11430  1.0000
  I   I69       1.0  0.31450  0.44893  0.91362  1.0000
  I   I70       1.0  0.46847  0.02493  0.43020  1.0000
  I   I71       1.0  0.62985  0.88619  0.87515  1.0000
  I   I72       1.0  0.49824  0.99070  0.90437  1.0000
  I   I73       1.0  0.29564  0.48059  0.33458  1.0000
  I   I74       1.0  0.26386  0.28615  0.60184  1.0000
  I   I75       1.0  0.10855  0.39725  0.61287  1.0000
  I   I76       1.0  0.51738  0.61518  0.55116  1.0000
  I   I77       1.0  0.42618  0.59175  0.67385  1.0000
  I   I78       1.0  0.76921  0.49695  0.60043  1.0000
  I   I79       1.0  0.85250  0.40864  0.81342  1.0000
  I   I80       1.0  0.62524  0.53431  0.29287  1.0000
  I   I81       1.0  0.84847  0.11733  0.49392  1.0000
  I   I82       1.0  0.94589  0.77743  0.28704  1.0000
  I   I83       1.0  0.77531  0.56034  0.92000  1.0000
  I   I84       1.0  0.00959  0.59305  0.63604  1.0000
  I   I85       1.0  0.77407  0.31573  0.09404  1.0000
  I   I86       1.0  0.58839  0.24686  0.46945  1.0000
  I   I87       1.0  0.32335  0.68661  0.15838  1.0000
  I   I88       1.0  0.30652  0.83427  0.83676  1.0000
  I   I89       1.0  0.61447  0.37323  0.59630  1.0000
  I   I90       1.0  0.51836  0.68033  0.17452  1.0000
  I   I91       1.0  0.14242  0.45541  0.25098  1.0000
  I   I92       1.0  0.84246  0.20258  0.77959  1.0000
  I   I93       1.0  0.98716  0.50447  0.39873  1.0000
  I   I94       1.0  0.53085  0.37512  0.86932  1.0000
  I   I95       1.0  0.60110  0.05739  0.62540  1.0000
  I   I96       1.0  0.45551  0.17921  0.28942  1.0000
  I   I97       1.0  0.95095  0.62614  0.40229  1.0000
  I   I98       1.0  0.87358  0.74886  0.09180  1.0000
  I   I99       1.0  0.92112  0.92847  0.14090  1.0000
  I   I100      1.0  0.26226  0.10089  0.41278  1.0000
  I   I101      1.0  0.36274  0.09265  0.34832  1.0000
  I   I102      1.0  0.04656  0.14999  0.04966  1.0000
  I   I103      1.0  0.94364  0.82926  0.71465  1.0000
  I   I104      1.0  0.95866  0.81373  0.43953  1.0000
  I   I105      1.0  0.79911  0.96523  0.67224  1.0000
  I   I106      1.0  0.83186  0.80842  0.78485  1.0000
  I   I107      1.0  0.42718  0.89094  0.08346  1.0000
  I   I108      1.0  0.84621  0.70837  0.79123  1.0000
  I   I109      1.0  0.27127  0.09666  0.96715  1.0000
  I   I110      1.0  0.45659  0.26589  0.66895  1.0000
  I   I111      1.0  0.16889  0.43089  0.38393  1.0000
  I   I112      1.0  0.09088  0.30644  0.08746  1.0000
  I   I113      1.0  0.20530  0.73778  0.20773  1.0000
  I   I114      1.0  0.24561  0.61647  0.06856  1.0000
  I   I115      1.0  0.63420  0.66900  0.48281  1.0000
  I   I116      1.0  0.71854  0.62210  0.49714  1.0000
  I   I117      1.0  0.73541  0.80895  0.26430  1.0000
  I   I118      1.0  0.53920  0.98564  0.34120  1.0000
  I   I119      1.0  0.44452  0.09405  0.51071  1.0000
  I   I120      1.0  0.54209  0.92250  0.93907  1.0000
  I   I121      1.0  0.27828  0.54947  0.39077  1.0000
  I   I122      1.0  0.29613  0.22724  0.73483  1.0000
  I   I123      1.0  0.23139  0.36013  0.64350  1.0000
  I   I124      1.0  0.80907  0.54250  0.54070  1.0000
  I   I125      1.0  0.40252  0.63335  0.55212  1.0000
  I   I126      1.0  0.76713  0.45519  0.47276  1.0000
  I   I127      1.0  0.92901  0.36950  0.96292  1.0000
  I   I128      1.0  0.58245  0.53841  0.09911  1.0000
  I   I129      1.0  0.83404  0.14206  0.36288  1.0000
  I   I130      1.0  0.13191  0.49132  0.75955  1.0000
  I   I131      1.0  0.00358  0.68566  0.30396  1.0000
  I   I132      1.0  0.68075  0.64680  0.76632  1.0000
  I   I133      1.0  0.35381  0.72472  0.30262  1.0000
  I   I134      1.0  0.62850  0.27424  0.40652  1.0000
  I   I135      1.0  0.55282  0.30498  0.24162  1.0000
  I   I136      1.0  0.44821  0.73395  0.17655  1.0000
  I   I137      1.0  0.36194  0.92379  0.74478  1.0000
  I   I138      1.0  0.62616  0.39701  0.83414  1.0000
  I   I139      1.0  0.06802  0.50667  0.40300  1.0000
  I   I140      1.0  0.78718  0.20247  0.66509  1.0000
  I   I141      1.0  0.95378  0.50809  0.27694  1.0000
  I   I142      1.0  0.51602  0.26750  0.97235  1.0000
  I   I143      1.0  0.52984  0.14280  0.52683  1.0000
  I   I144      1.0  0.39415  0.16834  0.30156  1.0000
  I   I145      1.0  0.88867  0.60020  0.09540  1.0000
  I   I146      1.0  0.81820  0.95824  0.04552  1.0000
  I   I147      1.0  0.90370  0.68886  0.48663  1.0000
  I   I148      1.0  0.33781  0.09141  0.51392  1.0000
  I   I149      1.0  0.04628  0.12339  0.89337  1.0000
  I   I150      1.0  0.09465  0.12447  0.24210  1.0000
  I   I151      1.0  0.01217  0.76757  0.68045  1.0000
  I   I152      1.0  0.04032  0.97554  0.42446  1.0000
  I   I153      1.0  0.72911  0.00969  0.74049  1.0000
  I   I154      1.0  0.18117  0.94034  0.28793  1.0000
  I   I155      1.0  0.30168  0.62263  0.62576  1.0000
  I   I156      1.0  0.82022  0.76712  0.70238  1.0000
  I   I157      1.0  0.22901  0.16665  0.96948  1.0000
  I   I158      1.0  0.20101  0.36346  0.29630  1.0000
  I   I159      1.0  0.21787  0.10398  0.05277  1.0000
  I   I160      1.0  0.03434  0.31001  0.19300  1.0000
  I   I161      1.0  0.19663  0.68578  0.14891  1.0000
  I   I162      1.0  0.04532  0.37824  0.15019  1.0000
  I   I163      1.0  0.68407  0.60842  0.39749  1.0000
  I   I164      1.0  0.72626  0.86820  0.10176  1.0000
  I   I165      1.0  0.32193  0.41076  0.13351  1.0000
  I   I166      1.0  0.52923  0.02880  0.45765  1.0000
  I   I167      1.0  0.62584  0.83176  0.80476  1.0000
  I   I168      1.0  0.53428  0.89247  0.55036  1.0000
  I   I169      1.0  0.25090  0.25263  0.85951  1.0000
  I   I170      1.0  0.22386  0.26549  0.70898  1.0000
  I   I171      1.0  0.24169  0.55057  0.28160  1.0000
  I   I172      1.0  0.90227  0.51740  0.66474  1.0000
  I   I173      1.0  0.76644  0.37153  0.41112  1.0000
  I   I174      1.0  0.82918  0.43583  0.58605  1.0000
  I   I175      1.0  0.65697  0.53491  0.17200  1.0000
  I   I176      1.0  0.86038  0.11454  0.22701  1.0000
  I   I177      1.0  0.85002  0.36293  0.90486  1.0000
  I   I178      1.0  0.00600  0.73863  0.22133  1.0000
  I   I179      1.0  0.68326  0.58000  0.85276  1.0000
  I   I180      1.0  0.17204  0.52877  0.70489  1.0000
  I   I181      1.0  0.66177  0.31320  0.22285  1.0000
  I   I182      1.0  0.49488  0.33307  0.41016  1.0000
  I   I183      1.0  0.35587  0.65180  0.27598  1.0000
  I   I184      1.0  0.26447  0.91800  0.88734  1.0000
  I   I185      1.0  0.66425  0.33926  0.74505  1.0000
  I   I186      1.0  0.52861  0.67703  0.88940  1.0000
  I   I187      1.0  0.76244  0.25356  0.79655  1.0000
  I   I188      1.0  0.90461  0.49576  0.20974  1.0000
  I   I189      1.0  0.02607  0.44489  0.31792  1.0000
  I   I190      1.0  0.54253  0.19570  0.57480  1.0000
  I   I191      1.0  0.40481  0.28937  0.31867  1.0000
  I   I192      1.0  0.51410  0.31879  0.06712  1.0000
  I   I193      1.0  0.94609  0.67874  0.07352  1.0000
  I   I194      1.0  0.83751  0.97098  0.15295  1.0000
  I   I195      1.0  0.93434  0.62431  0.55495  1.0000
  I   I196      1.0  0.28850  0.10332  0.28868  1.0000
  I   I197      1.0  0.03248  0.09543  0.07424  1.0000
  I   I198      1.0  0.13058  0.16583  0.25562  1.0000
  I   I199      1.0  0.92406  0.87625  0.54660  1.0000
  I   I200      1.0  0.02929  0.95262  0.69797  1.0000
  I   I201      1.0  0.77715  0.03614  0.84495  1.0000
  I   I202      1.0  0.35390  0.88323  0.08551  1.0000
  I   I203      1.0  0.34833  0.62562  0.74848  1.0000
  I   I204      1.0  0.88599  0.76366  0.66991  1.0000
  I   I205      1.0  0.46965  0.31619  0.60300  1.0000
  I   I206      1.0  0.23234  0.35538  0.42581  1.0000
  I   I207      1.0  0.19803  0.16954  0.10423  1.0000
  I   I208      1.0  0.14943  0.80553  0.21904  1.0000
  I   I209      1.0  0.19677  0.60887  0.15551  1.0000
  I   I210      1.0  0.07646  0.34582  0.27080  1.0000
  I   I211      1.0  0.62667  0.70797  0.34842  1.0000
  I   I212      1.0  0.69443  0.82098  0.13564  1.0000
  I   I213      1.0  0.37098  0.40887  0.01997  1.0000
  I   I214      1.0  0.50515  0.05119  0.59292  1.0000
  I   I215      1.0  0.61460  0.84260  0.95172  1.0000
  I   I216      1.0  0.59348  0.87396  0.45573  1.0000
  I   I217      1.0  0.22082  0.20449  0.79445  1.0000
  I   I218      1.0  0.26951  0.30699  0.74434  1.0000
  I   I219      1.0  0.21400  0.57479  0.40855  1.0000
  I   I220      1.0  0.56682  0.53730  0.59775  1.0000
  I   I221      1.0  0.72482  0.38490  0.53385  1.0000
  I   I222      1.0  0.83753  0.46917  0.48876  1.0000
  I   I223      1.0  0.64435  0.48470  0.04360  1.0000
  I   I224      1.0  0.84883  0.19017  0.47269  1.0000
  I   I225      1.0  0.87619  0.34905  0.04986  1.0000
  I   I226      1.0  0.01581  0.76674  0.33502  1.0000
  I   I227      1.0  0.75483  0.50250  0.84627  1.0000
  I   I228      1.0  0.11034  0.51534  0.62701  1.0000
  I   I229      1.0  0.73227  0.24593  0.24335  1.0000
  I   I230      1.0  0.48076  0.36481  0.28576  1.0000
  I   I231      1.0  0.36656  0.78097  0.23943  1.0000
  I   I232      1.0  0.28120  0.90470  0.75768  1.0000
  I   I233      1.0  0.56843  0.43605  0.72414  1.0000
  I   I234      1.0  0.44429  0.71466  0.90950  1.0000
  I   I235      1.0  0.81016  0.17825  0.04466  1.0000
  I   I236      1.0  0.85815  0.50422  0.31200  1.0000
  I   I237      1.0  0.03143  0.51496  0.28078  1.0000
  I   I238      1.0  0.56763  0.16727  0.42650  1.0000
  I   I239      1.0  0.47909  0.23070  0.33236  1.0000
  I   I240      1.0  0.55940  0.30709  0.96325  1.0000
  I   I241      1.0  0.85511  0.68236  0.06667  1.0000
  I   I242      1.0  0.88627  0.96683  0.03315  1.0000
  I   I243      1.0  0.98118  0.66323  0.50215  1.0000
  I   I244      1.0  0.29253  0.14876  0.41380  1.0000
  I   I245      1.0  0.09885  0.08670  0.01522  1.0000
  I   I246      1.0  0.16202  0.08560  0.30894  1.0000
  I   I247      1.0  0.95139  0.80618  0.59694  1.0000
  I   I248      1.0  0.10343  0.97115  0.46724  1.0000
  I   I249      1.0  0.69030  0.07226  0.81877  1.0000
  I   I250      1.0  0.37513  0.90074  0.20602  1.0000
  I   I251      1.0  0.37962  0.55113  0.70119  1.0000
  I   I252      1.0  0.78833  0.77693  0.84261  1.0000
  I   I253      1.0  0.41319  0.37931  0.66811  1.0000
  I   I254      1.0  0.31344  0.31995  0.32945  1.0000
  I   I255      1.0  0.27745  0.14527  0.08566  1.0000
  I   I256      1.0  0.12291  0.78109  0.34580  1.0000
  I   I257      1.0  0.27275  0.59038  0.20215  1.0000
  I   I258      1.0  0.13560  0.31820  0.01080  1.0000
  I   I259      1.0  0.65866  0.64117  0.26839  1.0000
  I   I260      1.0  0.72717  0.90627  0.26965  1.0000
  I   I261      1.0  0.25153  0.47884  0.15461  1.0000
  I   I262      1.0  0.45379  0.02326  0.57891  1.0000
  I   I263      1.0  0.55152  0.85616  0.87721  1.0000
  I   I264      1.0  0.59466  0.90293  0.59501  1.0000
  I   I265      1.0  0.29441  0.17920  0.83195  1.0000
  I   I266      1.0  0.18785  0.35334  0.74135  1.0000
  I   I267      1.0  0.20787  0.50495  0.29462  1.0000
  I   I268      1.0  0.47502  0.57271  0.49726  1.0000
  I   I269      1.0  0.69954  0.44175  0.42921  1.0000
  I   I270      1.0  0.87054  0.49678  0.58981  1.0000
  I   I271      1.0  0.60345  0.45504  0.11446  1.0000
  I   I272      1.0  0.91795  0.13036  0.43276  1.0000
  I   I273      1.0  0.91849  0.35156  0.85002  1.0000
  I   I274      1.0  0.97999  0.73167  0.41249  1.0000
  I   I275      1.0  0.74874  0.57127  0.78471  1.0000
  I   I276      1.0  0.12322  0.56067  0.80204  1.0000
  I   I277      1.0  0.70369  0.25181  0.12285  1.0000
  I   I278      1.0  0.55158  0.27023  0.34037  1.0000
  I   I279      1.0  0.37171  0.71327  0.17216  1.0000
  I   I280      1.0  0.32346  0.94960  0.86893  1.0000
  I   I281      1.0  0.52312  0.41253  0.65075  1.0000
  I   I282      1.0  0.50792  0.74671  0.11974  1.0000
  I   I283      1.0  0.87124  0.17118  0.92750  1.0000
  I   I284      1.0  0.89456  0.55897  0.32719  1.0000
  I   I285      1.0  0.08940  0.44589  0.31977  1.0000
  I   I286      1.0  0.59688  0.11745  0.59396  1.0000
  I   I287      1.0  0.42739  0.23515  0.19897  1.0000
  I   I288      1.0  0.50453  0.32481  0.86914  1.0000
  I   I289      1.0  0.88977  0.65966  0.17610  1.0000
  I   I290      1.0  0.76560  0.95465  0.11195  1.0000
  I   I291      1.0  0.95898  0.96565  0.05038  1.0000
  I   I292      1.0  0.32932  0.05274  0.41838  1.0000
  I   I293      1.0  0.06010  0.05657  0.95190  1.0000
  I   I294      1.0  0.15781  0.09058  0.51135  1.0000
  I   I295      1.0  0.01782  0.83244  0.71110  1.0000
  I   I296      1.0  0.06371  0.93927  0.55933  1.0000
  I   I297      1.0  0.73557  0.01497  0.57513  1.0000
  I   I298      1.0  0.11779  0.96733  0.16648  1.0000
  I   I299      1.0  0.47800  0.91942  0.12835  1.0000
  I   I300      1.0  0.87917  0.68870  0.66342  1.0000
  I   I301      1.0  0.29502  0.02034  0.96407  1.0000
  I   I302      1.0  0.38590  0.32175  0.69259  1.0000
  I   I303      1.0  0.21697  0.42086  0.27419  1.0000
  I   I304      1.0  0.12261  0.36478  0.16650  1.0000
  I   I305      1.0  0.19776  0.64727  0.26029  1.0000
  I   I306      1.0  0.29175  0.71528  0.72743  1.0000
  I   I307      1.0  0.60516  0.64507  0.38277  1.0000
  I   I308      1.0  0.77422  0.84407  0.20727  1.0000
  I   I309      1.0  0.30070  0.40139  0.98990  1.0000
  I   I310      1.0  0.52689  0.96679  0.53367  1.0000
  I   I311      1.0  0.69501  0.87107  0.79514  1.0000
  I   I312      1.0  0.47585  0.93720  0.84167  1.0000
  I   I313      1.0  0.16104  0.55161  0.39474  1.0000
  I   I314      1.0  0.24845  0.23089  0.57138  1.0000
  I   I315      1.0  0.10981  0.40489  0.75039  1.0000
  I   I316      1.0  0.85540  0.52203  0.77722  1.0000
  I   I317      1.0  0.42339  0.55522  0.56176  1.0000
  I   I318      1.0  0.77374  0.42562  0.66228  1.0000
  I   I319      1.0  0.85598  0.41324  0.97655  1.0000
  I   I320      1.0  0.57164  0.59586  0.20434  1.0000
  I   I321      1.0  0.87653  0.16249  0.32890  1.0000
  I   I322      1.0  0.07259  0.68841  0.17267  1.0000
  I   I323      1.0  0.73350  0.64547  0.84549  1.0000
  I   I324      1.0  0.04945  0.53653  0.53598  1.0000
  I   I325      1.0  0.70345  0.31261  0.02344  1.0000
  I   I326      1.0  0.55899  0.33994  0.34437  1.0000
  I   I327      1.0  0.31386  0.76568  0.13939  1.0000
  I   I328      1.0  0.40331  0.88123  0.87460  1.0000
  I   I329      1.0  0.64806  0.40701  0.70048  1.0000
  I   I330      1.0  0.52485  0.68211  0.03889  1.0000
  I   I331      1.0  0.08607  0.53392  0.23650  1.0000
  I   I332      1.0  0.80148  0.17181  0.89614  1.0000
  I   I333      1.0  0.99349  0.42648  0.41945  1.0000
  I   I334      1.0  0.45477  0.39333  0.82435  1.0000
  I   I335      1.0  0.58875  0.07403  0.48991  1.0000
  I   I336      1.0  0.37116  0.24375  0.30407  1.0000
  I   I337      1.0  0.95563  0.60201  0.11591  1.0000
  I   I338      1.0  0.75739  0.00927  0.21230  1.0000
  I   I339      1.0  0.93412  0.98249  0.19406  1.0000
  I   I340      1.0  0.30278  0.04155  0.54123  1.0000
  I   I341      1.0  0.95899  0.14564  0.11703  1.0000
  I   I342      1.0  0.09965  0.07699  0.43092  1.0000
  I   I343      1.0  0.01480  0.81320  0.57198  1.0000
  I   I344      1.0  0.04157  0.03998  0.49748  1.0000
  I   I345      1.0  0.71144  0.06651  0.68294  1.0000
  I   I346      1.0  0.13197  0.02095  0.25452  1.0000
  I   I347      1.0  0.42663  0.94125  0.25507  1.0000
  I   I348      1.0  0.91934  0.70745  0.76851  1.0000
  I   I349      1.0  0.29484  0.04155  0.10256  1.0000
  I   I350      1.0  0.41474  0.28500  0.83863  1.0000
  I   I351      1.0  0.25728  0.29124  0.35192  1.0000
  I   I352      1.0  0.12567  0.29410  0.19861  1.0000
  I   I353      1.0  0.18484  0.69419  0.34947  1.0000
  I   I354      1.0  0.24657  0.76997  0.62280  1.0000
  I   I355      1.0  0.70351  0.65442  0.34410  1.0000
  I   I356      1.0  0.72424  0.86508  0.37494  1.0000
  I   I357      1.0  0.32101  0.48744  0.05440  1.0000
  I   I358      1.0  0.51461  0.93834  0.43309  1.0000
  I   I359      1.0  0.70175  0.80979  0.86467  1.0000
  I   I360      1.0  0.50052  0.97759  0.76973  1.0000
  I   I361      1.0  0.15273  0.59261  0.28292  1.0000
  I   I362      1.0  0.32199  0.19360  0.62057  1.0000
  I   I363      1.0  0.12278  0.33590  0.70524  1.0000
  I   I364      1.0  0.82013  0.57514  0.67617  1.0000
  I   I365      1.0  0.53622  0.56476  0.45338  1.0000
  I   I366      1.0  0.72158  0.45304  0.56639  1.0000
  I   I367      1.0  0.90408  0.42772  0.84455  1.0000
  I   I368      1.0  0.59822  0.50481  0.22075  1.0000
  I   I369      1.0  0.92874  0.09692  0.28595  1.0000
  I   I370      1.0  0.05468  0.63339  0.22287  1.0000
  I   I371      1.0  0.68279  0.62873  0.91539  1.0000
  I   I372      1.0  0.08193  0.58022  0.66024  1.0000
  I   I373      1.0  0.76057  0.26032  0.12142  1.0000
  I   I374      1.0  0.55544  0.32345  0.48523  1.0000
  I   I375      1.0  0.29067  0.72752  0.27960  1.0000
  I   I376      1.0  0.34318  0.87802  0.91054  1.0000
  I   I377      1.0  0.55591  0.44412  0.58264  1.0000
  I   I378      1.0  0.45991  0.73878  0.02601  1.0000
  I   I379      1.0  0.07557  0.47040  0.18299  1.0000
  I   I380      1.0  0.81080  0.26587  0.68939  1.0000
  I   I381      1.0  0.92177  0.49066  0.39849  1.0000
  I   I382      1.0  0.45894  0.35895  0.96750  1.0000
  I   I383      1.0  0.52166  0.11165  0.63982  1.0000
  I   I384      1.0  0.40623  0.18984  0.16199  1.0000
