data_image0
_chemical_formula_structural       Ti96I384
_chemical_formula_sum              "Ti96 I384"
_cell_length_a       40.6789
_cell_length_b       40.1211
_cell_length_c       22.331
_cell_angle_alpha    88.7757
_cell_angle_beta     88.7757
_cell_angle_gamma    62.1586

_space_group_name_H-M_alt    "P 1"
_space_group_IT_number       1

loop_
  _space_group_symop_operation_xyz
  'x, y, z'

loop_
  _atom_site_type_symbol
  _atom_site_label
  _atom_site_symmetry_multiplicity
  _atom_site_fract_x
  _atom_site_fract_y
  _atom_site_fract_z
  _atom_site_occupancy
  Ti  Ti1       1.0  0.13639  0.09166  0.10877  1.0000
  Ti  Ti2       1.0  0.15407  0.09005  0.46990  1.0000
  Ti  Ti3       1.0  0.15505  0.08807  0.79042  1.0000
  Ti  Ti4       1.0  0.21489  0.30098  0.30163  1.0000
  Ti  Ti5       1.0  0.20415  0.33509  0.63086  1.0000
  Ti  Ti6       1.0  0.20070  0.32855  0.95545  1.0000
  Ti  Ti7       1.0  0.12557  0.65767  0.33938  1.0000
  Ti  Ti8       1.0  0.10572  0.66502  0.68582  1.0000
  Ti  Ti9       1.0  0.09692  0.66914  0.00394  1.0000
  Ti  Ti10      1.0  0.13151  0.86540  0.27190  1.0000
  Ti  Ti11      1.0  0.10921  0.88542  0.59047  1.0000
  Ti  Ti12      1.0  0.14476  0.88916  0.92597  1.0000
  Ti  Ti13      1.0  0.44730  0.06630  0.24239  1.0000
  Ti  Ti14      1.0  0.45919  0.04028  0.57059  1.0000
  Ti  Ti15      1.0  0.44676  0.06441  0.91385  1.0000
  Ti  Ti16      1.0  0.35636  0.40533  0.38959  1.0000
  Ti  Ti17      1.0  0.34766  0.39630  0.72959  1.0000
  Ti  Ti18      1.0  0.34590  0.40693  0.05188  1.0000
  Ti  Ti19      1.0  0.38559  0.63485  0.35209  1.0000
  Ti  Ti20      1.0  0.37931  0.63956  0.67839  1.0000
  Ti  Ti21      1.0  0.41313  0.61901  0.99856  1.0000
  Ti  Ti22      1.0  0.43988  0.81055  0.05848  1.0000
  Ti  Ti23      1.0  0.36700  0.88120  0.38941  1.0000
  Ti  Ti24      1.0  0.43236  0.83412  0.70361  1.0000
  Ti  Ti25      1.0  0.62974  0.11835  0.28142  1.0000
  Ti  Ti26      1.0  0.62587  0.12890  0.64012  1.0000
  Ti  Ti27      1.0  0.62314  0.14930  0.94686  1.0000
  Ti  Ti28      1.0  0.63722  0.33372  0.20458  1.0000
  Ti  Ti29      1.0  0.66192  0.31711  0.55643  1.0000
  Ti  Ti30      1.0  0.67160  0.32325  0.88779  1.0000
  Ti  Ti31      1.0  0.69449  0.57140  0.09057  1.0000
  Ti  Ti32      1.0  0.68157  0.56901  0.42468  1.0000
  Ti  Ti33      1.0  0.66969  0.57347  0.73600  1.0000
  Ti  Ti34      1.0  0.68504  0.79066  0.29272  1.0000
  Ti  Ti35      1.0  0.68330  0.80489  0.61190  1.0000
  Ti  Ti36      1.0  0.69604  0.81241  0.97005  1.0000
  Ti  Ti37      1.0  0.88541  0.11617  0.25718  1.0000
  Ti  Ti38      1.0  0.91429  0.11533  0.57693  1.0000
  Ti  Ti39      1.0  0.90874  0.10232  0.92306  1.0000
  Ti  Ti40      1.0  0.92202  0.29484  0.11969  1.0000
  Ti  Ti41      1.0  0.94405  0.31730  0.43623  1.0000
  Ti  Ti42      1.0  0.93103  0.31876  0.78285  1.0000
  Ti  Ti43      1.0  0.93887  0.54107  0.29680  1.0000
  Ti  Ti44      1.0  0.94756  0.52920  0.65075  1.0000
  Ti  Ti45      1.0  0.92754  0.53104  0.97953  1.0000
  Ti  Ti46      1.0  0.83748  0.87567  0.36431  1.0000
  Ti  Ti47      1.0  0.86213  0.87365  0.69211  1.0000
  Ti  Ti48      1.0  0.86334  0.87013  0.02967  1.0000
  Ti  Ti49      1.0  0.07982  0.16202  0.95233  1.0000
  Ti  Ti50      1.0  0.08315  0.13741  0.29018  1.0000
  Ti  Ti51      1.0  0.09835  0.15145  0.63785  1.0000
  Ti  Ti52      1.0  0.12929  0.33219  0.16712  1.0000
  Ti  Ti53      1.0  0.14216  0.32215  0.46517  1.0000
  Ti  Ti54      1.0  0.13706  0.33893  0.79434  1.0000
  Ti  Ti55      1.0  0.04714  0.71538  0.18321  1.0000
  Ti  Ti56      1.0  0.04751  0.71978  0.50385  1.0000
  Ti  Ti57      1.0  0.02731  0.70180  0.84322  1.0000
  Ti  Ti58      1.0  0.06765  0.93730  0.10572  1.0000
  Ti  Ti59      1.0  0.05462  0.93029  0.42100  1.0000
  Ti  Ti60      1.0  0.06594  0.93831  0.77457  1.0000
  Ti  Ti61      1.0  0.39242  0.13058  0.07900  1.0000
  Ti  Ti62      1.0  0.40311  0.11409  0.40799  1.0000
  Ti  Ti63      1.0  0.40308  0.12228  0.72846  1.0000
  Ti  Ti64      1.0  0.30497  0.46159  0.22816  1.0000
  Ti  Ti65      1.0  0.31819  0.47413  0.56005  1.0000
  Ti  Ti66      1.0  0.28857  0.46646  0.89513  1.0000
  Ti  Ti67      1.0  0.34992  0.66851  0.16612  1.0000
  Ti  Ti68      1.0  0.31261  0.67716  0.50142  1.0000
  Ti  Ti69      1.0  0.33186  0.66078  0.85774  1.0000
  Ti  Ti70      1.0  0.41456  0.86747  0.91143  1.0000
  Ti  Ti71      1.0  0.29915  0.96182  0.26115  1.0000
  Ti  Ti72      1.0  0.34390  0.91930  0.57587  1.0000
  Ti  Ti73      1.0  0.55872  0.19730  0.12258  1.0000
  Ti  Ti74      1.0  0.58236  0.16432  0.45259  1.0000
  Ti  Ti75      1.0  0.54856  0.20445  0.78442  1.0000
  Ti  Ti76      1.0  0.57351  0.37437  0.04352  1.0000
  Ti  Ti77      1.0  0.58965  0.38705  0.39055  1.0000
  Ti  Ti78      1.0  0.59161  0.38393  0.70851  1.0000
  Ti  Ti79      1.0  0.63353  0.62554  0.92138  1.0000
  Ti  Ti80      1.0  0.61351  0.62589  0.25046  1.0000
  Ti  Ti81      1.0  0.60810  0.62608  0.57715  1.0000
  Ti  Ti82      1.0  0.62509  0.86819  0.12193  1.0000
  Ti  Ti83      1.0  0.61239  0.85681  0.45132  1.0000
  Ti  Ti84      1.0  0.62849  0.86545  0.78557  1.0000
  Ti  Ti85      1.0  0.83656  0.16301  0.07835  1.0000
  Ti  Ti86      1.0  0.84036  0.18049  0.42471  1.0000
  Ti  Ti87      1.0  0.85473  0.16128  0.76145  1.0000
  Ti  Ti88      1.0  0.86144  0.36332  0.94152  1.0000
  Ti  Ti89      1.0  0.86564  0.36741  0.28458  1.0000
  Ti  Ti90      1.0  0.87754  0.38182  0.61092  1.0000
  Ti  Ti91      1.0  0.90549  0.60788  0.13018  1.0000
  Ti  Ti92      1.0  0.91157  0.60839  0.48551  1.0000
  Ti  Ti93      1.0  0.90342  0.61558  0.79912  1.0000
  Ti  Ti94      1.0  0.79337  0.93441  0.19248  1.0000
  Ti  Ti95      1.0  0.80402  0.93596  0.53862  1.0000
  Ti  Ti96      1.0  0.81456  0.93572  0.87223  1.0000
  I   I1        1.0  0.06729  0.10670  0.19099  1.0000
  I   I2        1.0  0.08633  0.11861  0.53558  1.0000
  I   I3        1.0  0.07966  0.12531  0.84508  1.0000
  I   I4        1.0  0.17532  0.26945  0.38181  1.0000
  I   I5        1.0  0.17903  0.28774  0.70760  1.0000
  I   I6        1.0  0.14835  0.28480  0.07517  1.0000
  I   I7        1.0  0.03954  0.68658  0.40711  1.0000
  I   I8        1.0  0.03403  0.66444  0.73040  1.0000
  I   I9        1.0  0.03668  0.67851  0.07851  1.0000
  I   I10       1.0  0.05171  0.89680  0.32376  1.0000
  I   I11       1.0  0.04465  0.92162  0.65971  1.0000
  I   I12       1.0  0.05792  0.90806  0.01130  1.0000
  I   I13       1.0  0.37220  0.11320  0.29858  1.0000
  I   I14       1.0  0.38820  0.08073  0.64194  1.0000
  I   I15       1.0  0.37739  0.09860  0.98587  1.0000
  I   I16       1.0  0.29008  0.45260  0.46229  1.0000
  I   I17       1.0  0.27417  0.44125  0.76945  1.0000
  I   I18       1.0  0.28349  0.43402  0.13169  1.0000
  I   I19       1.0  0.30630  0.66082  0.39174  1.0000
  I   I20       1.0  0.33536  0.61986  0.75330  1.0000
  I   I21       1.0  0.35806  0.61102  0.07872  1.0000
  I   I22       1.0  0.29497  0.92678  0.16449  1.0000
  I   I23       1.0  0.31377  0.90329  0.48827  1.0000
  I   I24       1.0  0.37184  0.87380  0.80438  1.0000
  I   I25       1.0  0.56319  0.13789  0.35037  1.0000
  I   I26       1.0  0.55518  0.14948  0.70533  1.0000
  I   I27       1.0  0.55276  0.16183  0.02987  1.0000
  I   I28       1.0  0.57330  0.35488  0.28664  1.0000
  I   I29       1.0  0.58983  0.34293  0.61116  1.0000
  I   I30       1.0  0.59519  0.33710  0.93890  1.0000
  I   I31       1.0  0.60586  0.59855  0.14492  1.0000
  I   I32       1.0  0.60028  0.58496  0.48829  1.0000
  I   I33       1.0  0.61071  0.60045  0.81988  1.0000
  I   I34       1.0  0.60284  0.81894  0.35379  1.0000
  I   I35       1.0  0.62009  0.83055  0.68721  1.0000
  I   I36       1.0  0.61761  0.84277  0.01007  1.0000
  I   I37       1.0  0.81967  0.16137  0.31183  1.0000
  I   I38       1.0  0.84375  0.13234  0.65483  1.0000
  I   I39       1.0  0.83459  0.12849  0.98293  1.0000
  I   I40       1.0  0.85691  0.32068  0.18300  1.0000
  I   I41       1.0  0.86857  0.34448  0.50569  1.0000
  I   I42       1.0  0.86191  0.33932  0.82635  1.0000
  I   I43       1.0  0.88168  0.59438  0.37164  1.0000
  I   I44       1.0  0.87291  0.59171  0.71222  1.0000
  I   I45       1.0  0.87082  0.59248  0.03840  1.0000
  I   I46       1.0  0.77209  0.92421  0.44200  1.0000
  I   I47       1.0  0.79255  0.90418  0.76560  1.0000
  I   I48       1.0  0.78321  0.91199  0.07572  1.0000
  I   I49       1.0  0.10582  0.16935  0.05775  1.0000
  I   I50       1.0  0.10633  0.16786  0.37917  1.0000
  I   I51       1.0  0.13886  0.15817  0.73476  1.0000
  I   I52       1.0  0.14658  0.35928  0.26703  1.0000
  I   I53       1.0  0.13586  0.37369  0.56913  1.0000
  I   I54       1.0  0.12900  0.38412  0.89695  1.0000
  I   I55       1.0  0.07829  0.73306  0.27407  1.0000
  I   I56       1.0  0.07572  0.73589  0.61459  1.0000
  I   I57       1.0  0.03734  0.73575  0.93713  1.0000
  I   I58       1.0  0.10005  0.94231  0.21317  1.0000
  I   I59       1.0  0.08051  0.95930  0.51249  1.0000
  I   I60       1.0  0.09783  0.95910  0.87401  1.0000
  I   I61       1.0  0.44383  0.13226  0.16258  1.0000
  I   I62       1.0  0.44661  0.10969  0.50552  1.0000
  I   I63       1.0  0.41837  0.13628  0.84995  1.0000
  I   I64       1.0  0.34263  0.47246  0.32178  1.0000
  I   I65       1.0  0.35406  0.45881  0.67705  1.0000
  I   I66       1.0  0.31332  0.47892  0.99655  1.0000
  I   I67       1.0  0.36677  0.70225  0.26568  1.0000
  I   I68       1.0  0.31014  0.70336  0.62962  1.0000
  I   I69       1.0  0.35459  0.68459  0.96492  1.0000
  I   I70       1.0  0.47011  0.85283  0.97821  1.0000
  I   I71       1.0  0.34226  0.96422  0.35638  1.0000
  I   I72       1.0  0.40010  0.91116  0.66083  1.0000
  I   I73       1.0  0.60601  0.19748  0.21653  1.0000
  I   I74       1.0  0.60945  0.18701  0.54974  1.0000
  I   I75       1.0  0.58111  0.22447  0.86851  1.0000
  I   I76       1.0  0.59796  0.39686  0.14284  1.0000
  I   I77       1.0  0.62929  0.40167  0.47224  1.0000
  I   I78       1.0  0.60991  0.41599  0.79571  1.0000
  I   I79       1.0  0.65934  0.64579  0.02435  1.0000
  I   I80       1.0  0.63455  0.64182  0.36113  1.0000
  I   I81       1.0  0.64639  0.64048  0.66957  1.0000
  I   I82       1.0  0.64460  0.86848  0.23346  1.0000
  I   I83       1.0  0.64074  0.87815  0.55195  1.0000
  I   I84       1.0  0.66958  0.87470  0.88956  1.0000
  I   I85       1.0  0.87207  0.18429  0.17625  1.0000
  I   I86       1.0  0.85907  0.19254  0.53480  1.0000
  I   I87       1.0  0.87666  0.17987  0.86358  1.0000
  I   I88       1.0  0.87894  0.37580  0.05793  1.0000
  I   I89       1.0  0.90309  0.38978  0.36606  1.0000
  I   I90       1.0  0.89563  0.40104  0.71715  1.0000
  I   I91       1.0  0.93257  0.61062  0.24191  1.0000
  I   I92       1.0  0.95527  0.59157  0.58416  1.0000
  I   I93       1.0  0.93918  0.60091  0.90184  1.0000
  I   I94       1.0  0.80806  0.94703  0.30938  1.0000
  I   I95       1.0  0.84768  0.94481  0.63997  1.0000
  I   I96       1.0  0.84423  0.94388  0.97325  1.0000
  I   I97       1.0  0.16358  0.11606  0.90135  1.0000
  I   I98       1.0  0.14738  0.12117  0.20780  1.0000
  I   I99       1.0  0.15947  0.13437  0.56308  1.0000
  I   I100      1.0  0.17836  0.37811  0.04391  1.0000
  I   I101      1.0  0.20273  0.34133  0.40403  1.0000
  I   I102      1.0  0.17918  0.37185  0.73145  1.0000
  I   I103      1.0  0.10947  0.70073  0.10561  1.0000
  I   I104      1.0  0.12464  0.69864  0.43344  1.0000
  I   I105      1.0  0.09421  0.70671  0.77751  1.0000
  I   I106      1.0  0.13681  0.92538  0.02771  1.0000
  I   I107      1.0  0.13467  0.89297  0.38188  1.0000
  I   I108      1.0  0.12662  0.91965  0.69926  1.0000
  I   I109      1.0  0.46383  0.09897  0.01107  1.0000
  I   I110      1.0  0.48147  0.07421  0.33652  1.0000
  I   I111      1.0  0.47185  0.06751  0.67686  1.0000
  I   I112      1.0  0.37233  0.41330  0.15578  1.0000
  I   I113      1.0  0.38316  0.42241  0.48641  1.0000
  I   I114      1.0  0.35688  0.42902  0.83303  1.0000
  I   I115      1.0  0.42113  0.64257  0.11592  1.0000
  I   I116      1.0  0.37525  0.68839  0.44043  1.0000
  I   I117      1.0  0.38260  0.67857  0.77965  1.0000
  I   I118      1.0  0.46337  0.85360  0.80270  1.0000
  I   I119      1.0  0.42447  0.86274  0.14277  1.0000
  I   I120      1.0  0.40601  0.88408  0.48427  1.0000
  I   I121      1.0  0.62755  0.18391  0.04967  1.0000
  I   I122      1.0  0.65346  0.13195  0.39004  1.0000
  I   I123      1.0  0.62082  0.18080  0.72677  1.0000
  I   I124      1.0  0.66478  0.36719  0.98425  1.0000
  I   I125      1.0  0.66095  0.36058  0.31470  1.0000
  I   I126      1.0  0.66129  0.35736  0.65347  1.0000
  I   I127      1.0  0.69333  0.60229  0.83206  1.0000
  I   I128      1.0  0.68814  0.60795  0.18703  1.0000
  I   I129      1.0  0.69067  0.60380  0.51493  1.0000
  I   I130      1.0  0.70314  0.84433  0.06965  1.0000
  I   I131      1.0  0.68478  0.82737  0.39781  1.0000
  I   I132      1.0  0.69429  0.84477  0.70365  1.0000
  I   I133      1.0  0.91087  0.14022  0.03108  1.0000
  I   I134      1.0  0.90294  0.16187  0.34456  1.0000
  I   I135      1.0  0.93215  0.13201  0.69133  1.0000
  I   I136      1.0  0.93507  0.35174  0.89303  1.0000
  I   I137      1.0  0.93876  0.32525  0.22673  1.0000
  I   I138      1.0  0.94533  0.35412  0.53782  1.0000
  I   I139      1.0  0.96680  0.54483  0.08277  1.0000
  I   I140      1.0  0.96751  0.55066  0.41490  1.0000
  I   I141      1.0  0.96956  0.55371  0.75425  1.0000
  I   I142      1.0  0.86573  0.91219  0.13293  1.0000
  I   I143      1.0  0.87197  0.89460  0.45744  1.0000
  I   I144      1.0  0.87771  0.91143  0.78865  1.0000
  I   I145      1.0  0.10363  0.08685  0.00142  1.0000
  I   I146      1.0  0.12334  0.06713  0.38664  1.0000
  I   I147      1.0  0.12838  0.07687  0.68188  1.0000
  I   I148      1.0  0.20282  0.27599  0.19576  1.0000
  I   I149      1.0  0.19630  0.28022  0.54380  1.0000
  I   I150      1.0  0.19287  0.28237  0.87199  1.0000
  I   I151      1.0  0.09433  0.64241  0.24982  1.0000
  I   I152      1.0  0.08245  0.64827  0.57387  1.0000
  I   I153      1.0  0.08174  0.63890  0.90857  1.0000
  I   I154      1.0  0.10623  0.85279  0.16052  1.0000
  I   I155      1.0  0.07812  0.86574  0.50034  1.0000
  I   I156      1.0  0.11572  0.86943  0.82984  1.0000
  I   I157      1.0  0.40663  0.06462  0.13524  1.0000
  I   I158      1.0  0.43784  0.03534  0.45310  1.0000
  I   I159      1.0  0.41189  0.06249  0.81370  1.0000
  I   I160      1.0  0.31596  0.39601  0.29740  1.0000
  I   I161      1.0  0.30708  0.41335  0.61609  1.0000
  I   I162      1.0  0.30839  0.39355  0.95051  1.0000
  I   I163      1.0  0.38341  0.60254  0.25054  1.0000
  I   I164      1.0  0.36001  0.61980  0.57109  1.0000
  I   I165      1.0  0.39888  0.59822  0.88256  1.0000
  I   I166      1.0  0.43525  0.79156  0.93333  1.0000
  I   I167      1.0  0.30231  0.89520  0.32551  1.0000
  I   I168      1.0  0.38556  0.83641  0.61949  1.0000
  I   I169      1.0  0.59518  0.11169  0.17743  1.0000
  I   I170      1.0  0.60316  0.10369  0.54324  1.0000
  I   I171      1.0  0.58653  0.12773  0.87256  1.0000
  I   I172      1.0  0.60436  0.30411  0.11065  1.0000
  I   I173      1.0  0.63360  0.31054  0.45216  1.0000
  I   I174      1.0  0.63016  0.31899  0.79314  1.0000
  I   I175      1.0  0.67684  0.54787  0.98446  1.0000
  I   I176      1.0  0.65824  0.55037  0.31661  1.0000
  I   I177      1.0  0.62962  0.55540  0.64436  1.0000
  I   I178      1.0  0.66154  0.78419  0.17784  1.0000
  I   I179      1.0  0.65451  0.78256  0.51419  1.0000
  I   I180      1.0  0.67779  0.79124  0.84878  1.0000
  I   I181      1.0  0.86416  0.09482  0.15389  1.0000
  I   I182      1.0  0.88775  0.10336  0.46906  1.0000
  I   I183      1.0  0.88472  0.08371  0.81916  1.0000
  I   I184      1.0  0.90257  0.28244  0.00523  1.0000
  I   I185      1.0  0.90818  0.29432  0.36088  1.0000
  I   I186      1.0  0.92586  0.30460  0.65989  1.0000
  I   I187      1.0  0.89737  0.54571  0.19932  1.0000
  I   I188      1.0  0.90335  0.54351  0.55345  1.0000
  I   I189      1.0  0.89104  0.53558  0.87931  1.0000
  I   I190      1.0  0.81338  0.85490  0.25318  1.0000
  I   I191      1.0  0.83712  0.86254  0.58766  1.0000
  I   I192      1.0  0.84433  0.85537  0.92266  1.0000
  I   I193      1.0  0.20020  0.07210  0.06348  1.0000
  I   I194      1.0  0.21751  0.07545  0.41195  1.0000
  I   I195      1.0  0.21614  0.05690  0.73020  1.0000
  I   I196      1.0  0.25993  0.32391  0.25492  1.0000
  I   I197      1.0  0.22487  0.38047  0.57638  1.0000
  I   I198      1.0  0.23006  0.35688  0.88117  1.0000
  I   I199      1.0  0.18437  0.65432  0.28597  1.0000
  I   I200      1.0  0.17695  0.64900  0.66385  1.0000
  I   I201      1.0  0.14568  0.68709  0.95465  1.0000
  I   I202      1.0  0.19448  0.85277  0.22522  1.0000
  I   I203      1.0  0.17369  0.87169  0.55274  1.0000
  I   I204      1.0  0.19951  0.89730  0.87617  1.0000
  I   I205      1.0  0.51619  0.02527  0.19633  1.0000
  I   I206      1.0  0.52764  0.00771  0.52589  1.0000
  I   I207      1.0  0.51430  0.02674  0.86350  1.0000
  I   I208      1.0  0.42060  0.38109  0.33743  1.0000
  I   I209      1.0  0.42067  0.36264  0.71489  1.0000
  I   I210      1.0  0.40813  0.38319  0.98676  1.0000
  I   I211      1.0  0.45412  0.62119  0.35207  1.0000
  I   I212      1.0  0.40651  0.67883  0.62265  1.0000
  I   I213      1.0  0.45812  0.64079  0.95362  1.0000
  I   I214      1.0  0.50673  0.76598  0.07754  1.0000
  I   I215      1.0  0.42059  0.86076  0.30832  1.0000
  I   I216      1.0  0.48720  0.82186  0.62629  1.0000
  I   I217      1.0  0.69510  0.10220  0.22758  1.0000
  I   I218      1.0  0.69286  0.11630  0.59556  1.0000
  I   I219      1.0  0.68228  0.14681  0.89300  1.0000
  I   I220      1.0  0.70525  0.31345  0.16563  1.0000
  I   I221      1.0  0.72279  0.31517  0.51796  1.0000
  I   I222      1.0  0.71763  0.33739  0.82433  1.0000
  I   I223      1.0  0.76396  0.54403  0.06165  1.0000
  I   I224      1.0  0.73574  0.56733  0.35933  1.0000
  I   I225      1.0  0.73437  0.55185  0.68119  1.0000
  I   I226      1.0  0.74413  0.79304  0.25661  1.0000
  I   I227      1.0  0.74339  0.80165  0.56579  1.0000
  I   I228      1.0  0.76445  0.78335  0.92964  1.0000
  I   I229      1.0  0.95457  0.08985  0.23492  1.0000
  I   I230      1.0  0.96953  0.12075  0.51942  1.0000
  I   I231      1.0  0.97115  0.09722  0.89411  1.0000
  I   I232      1.0  0.98627  0.29389  0.08991  1.0000
  I   I233      1.0  0.00597  0.29745  0.38204  1.0000
  I   I234      1.0  0.99454  0.31023  0.74640  1.0000
  I   I235      1.0  0.00661  0.49233  0.26700  1.0000
  I   I236      1.0  0.99744  0.47228  0.60261  1.0000
  I   I237      1.0  0.99856  0.49179  0.93600  1.0000
  I   I238      1.0  0.90185  0.83853  0.30704  1.0000
  I   I239      1.0  0.93217  0.84021  0.64357  1.0000
  I   I240      1.0  0.93377  0.84763  0.99074  1.0000
  I   I241      1.0  0.15338  0.02033  0.13903  1.0000
  I   I242      1.0  0.19027  0.03488  0.54512  1.0000
  I   I243      1.0  0.16451  0.02447  0.83967  1.0000
  I   I244      1.0  0.26911  0.23510  0.34499  1.0000
  I   I245      1.0  0.27432  0.28799  0.64327  1.0000
  I   I246      1.0  0.25647  0.27066  0.00251  1.0000
  I   I247      1.0  0.14913  0.59802  0.41005  1.0000
  I   I248      1.0  0.12829  0.59605  0.73032  1.0000
  I   I249      1.0  0.15223  0.59977  0.03792  1.0000
  I   I250      1.0  0.15120  0.79896  0.31278  1.0000
  I   I251      1.0  0.12788  0.82365  0.65695  1.0000
  I   I252      1.0  0.17925  0.81658  0.95770  1.0000
  I   I253      1.0  0.44375  0.00590  0.27612  1.0000
  I   I254      1.0  0.46363  0.98241  0.62642  1.0000
  I   I255      1.0  0.44948  0.00141  0.95555  1.0000
  I   I256      1.0  0.35887  0.34326  0.44866  1.0000
  I   I257      1.0  0.33986  0.33823  0.76161  1.0000
  I   I258      1.0  0.35414  0.34247  0.10509  1.0000
  I   I259      1.0  0.39795  0.56815  0.40836  1.0000
  I   I260      1.0  0.44034  0.58095  0.71313  1.0000
  I   I261      1.0  0.44642  0.54266  0.02344  1.0000
  I   I262      1.0  0.40973  0.76988  0.11065  1.0000
  I   I263      1.0  0.38198  0.81419  0.42354  1.0000
  I   I264      1.0  0.44799  0.76571  0.74196  1.0000
  I   I265      1.0  0.64262  0.05108  0.32547  1.0000
  I   I266      1.0  0.65959  0.07219  0.71501  1.0000
  I   I267      1.0  0.65770  0.08339  0.99156  1.0000
  I   I268      1.0  0.67158  0.26496  0.25680  1.0000
  I   I269      1.0  0.67635  0.24807  0.59062  1.0000
  I   I270      1.0  0.70185  0.25391  0.92353  1.0000
  I   I271      1.0  0.70533  0.50515  0.13686  1.0000
  I   I272      1.0  0.71565  0.50221  0.47614  1.0000
  I   I273      1.0  0.68377  0.50815  0.78766  1.0000
  I   I274      1.0  0.70948  0.72516  0.34105  1.0000
  I   I275      1.0  0.70327  0.73753  0.65327  1.0000
  I   I276      1.0  0.70745  0.74773  0.02134  1.0000
  I   I277      1.0  0.89498  0.04930  0.29541  1.0000
  I   I278      1.0  0.94492  0.04081  0.59128  1.0000
  I   I279      1.0  0.93313  0.03337  0.97318  1.0000
  I   I280      1.0  0.95286  0.22398  0.15813  1.0000
  I   I281      1.0  0.97060  0.25146  0.49876  1.0000
  I   I282      1.0  0.95172  0.24683  0.80899  1.0000
  I   I283      1.0  0.90991  0.49768  0.33430  1.0000
  I   I284      1.0  0.91607  0.48704  0.69683  1.0000
  I   I285      1.0  0.93382  0.46959  0.02772  1.0000
  I   I286      1.0  0.82475  0.82053  0.40875  1.0000
  I   I287      1.0  0.88265  0.81337  0.75590  1.0000
  I   I288      1.0  0.87604  0.80611  0.07846  1.0000
  I   I289      1.0  0.01439  0.17781  0.99031  1.0000
  I   I290      1.0  0.02448  0.15434  0.35982  1.0000
  I   I291      1.0  0.03178  0.16650  0.68342  1.0000
  I   I292      1.0  0.09468  0.30399  0.22893  1.0000
  I   I293      1.0  0.10643  0.28328  0.49149  1.0000
  I   I294      1.0  0.09285  0.30774  0.82979  1.0000
  I   I295      1.0  0.99329  0.70978  0.24597  1.0000
  I   I296      1.0  0.99204  0.72370  0.56635  1.0000
  I   I297      1.0  0.97559  0.68673  0.87626  1.0000
  I   I298      1.0  0.00316  0.94447  0.15015  1.0000
  I   I299      1.0  0.98697  0.95021  0.45805  1.0000
  I   I300      1.0  0.00846  0.92924  0.80764  1.0000
  I   I301      1.0  0.32593  0.15353  0.12397  1.0000
  I   I302      1.0  0.34271  0.12668  0.47316  1.0000
  I   I303      1.0  0.33443  0.17348  0.71845  1.0000
  I   I304      1.0  0.23936  0.49129  0.28004  1.0000
  I   I305      1.0  0.25633  0.52782  0.61011  1.0000
  I   I306      1.0  0.22079  0.48573  0.93366  1.0000
  I   I307      1.0  0.28679  0.67513  0.20957  1.0000
  I   I308      1.0  0.24674  0.67859  0.53445  1.0000
  I   I309      1.0  0.27886  0.64714  0.89198  1.0000
  I   I310      1.0  0.36270  0.87020  0.01186  1.0000
  I   I311      1.0  0.22717  0.99257  0.29318  1.0000
  I   I312      1.0  0.29031  0.93832  0.65262  1.0000
  I   I313      1.0  0.50271  0.20660  0.19379  1.0000
  I   I314      1.0  0.51559  0.19744  0.51086  1.0000
  I   I315      1.0  0.48875  0.22168  0.85279  1.0000
  I   I316      1.0  0.50805  0.38178  0.05819  1.0000
  I   I317      1.0  0.53190  0.39128  0.45040  1.0000
  I   I318      1.0  0.53045  0.39118  0.75901  1.0000
  I   I319      1.0  0.57380  0.63532  0.97877  1.0000
  I   I320      1.0  0.55201  0.63825  0.29797  1.0000
  I   I321      1.0  0.55578  0.64881  0.65877  1.0000
  I   I322      1.0  0.55476  0.88619  0.14109  1.0000
  I   I323      1.0  0.55603  0.86504  0.52055  1.0000
  I   I324      1.0  0.57249  0.86911  0.85307  1.0000
  I   I325      1.0  0.77722  0.17461  0.14487  1.0000
  I   I326      1.0  0.77646  0.18131  0.45436  1.0000
  I   I327      1.0  0.79030  0.16654  0.79378  1.0000
  I   I328      1.0  0.79802  0.36920  0.97329  1.0000
  I   I329      1.0  0.80380  0.38235  0.33437  1.0000
  I   I330      1.0  0.81474  0.39139  0.65622  1.0000
  I   I331      1.0  0.83694  0.65347  0.16952  1.0000
  I   I332      1.0  0.84226  0.65340  0.51444  1.0000
  I   I333      1.0  0.83968  0.65996  0.85650  1.0000
  I   I334      1.0  0.72367  0.94653  0.21949  1.0000
  I   I335      1.0  0.74026  0.96873  0.59592  1.0000
  I   I336      1.0  0.74739  0.96209  0.91338  1.0000
  I   I337      1.0  0.07085  0.22669  0.91268  1.0000
  I   I338      1.0  0.05948  0.20201  0.23374  1.0000
  I   I339      1.0  0.07249  0.22314  0.62633  1.0000
  I   I340      1.0  0.07395  0.39933  0.13982  1.0000
  I   I341      1.0  0.08626  0.38555  0.41923  1.0000
  I   I342      1.0  0.07983  0.38876  0.74229  1.0000
  I   I343      1.0  0.00535  0.78267  0.14112  1.0000
  I   I344      1.0  0.02206  0.79090  0.47624  1.0000
  I   I345      1.0  0.98489  0.76917  0.79673  1.0000
  I   I346      1.0  0.04136  0.00742  0.08003  1.0000
  I   I347      1.0  0.03663  0.99526  0.36641  1.0000
  I   I348      1.0  0.03377  0.01001  0.75967  1.0000
  I   I349      1.0  0.37753  0.19398  0.01471  1.0000
  I   I350      1.0  0.39227  0.18037  0.37658  1.0000
  I   I351      1.0  0.44008  0.16003  0.68292  1.0000
  I   I352      1.0  0.29374  0.52577  0.18018  1.0000
  I   I353      1.0  0.34168  0.52245  0.52832  1.0000
  I   I354      1.0  0.27744  0.52803  0.83973  1.0000
  I   I355      1.0  0.32642  0.73314  0.11638  1.0000
  I   I356      1.0  0.27215  0.74927  0.46536  1.0000
  I   I357      1.0  0.27946  0.73231  0.84056  1.0000
  I   I358      1.0  0.38471  0.94308  0.90441  1.0000
  I   I359      1.0  0.30104  0.01723  0.20877  1.0000
  I   I360      1.0  0.33073  0.98462  0.54015  1.0000
  I   I361      1.0  0.52921  0.26463  0.07827  1.0000
  I   I362      1.0  0.56731  0.22409  0.39029  1.0000
  I   I363      1.0  0.52381  0.26151  0.71434  1.0000
  I   I364      1.0  0.55387  0.44037  0.99217  1.0000
  I   I365      1.0  0.55391  0.45520  0.35296  1.0000
  I   I366      1.0  0.56487  0.44872  0.65470  1.0000
  I   I367      1.0  0.60699  0.69402  0.88724  1.0000
  I   I368      1.0  0.58945  0.69497  0.21535  1.0000
  I   I369      1.0  0.58700  0.69403  0.52587  1.0000
  I   I370      1.0  0.61057  0.94009  0.09786  1.0000
  I   I371      1.0  0.58013  0.92131  0.39641  1.0000
  I   I372      1.0  0.59454  0.93583  0.75503  1.0000
  I   I373      1.0  0.80978  0.22843  0.02957  1.0000
  I   I374      1.0  0.83020  0.24983  0.40589  1.0000
  I   I375      1.0  0.83024  0.22967  0.72310  1.0000
  I   I376      1.0  0.84056  0.43441  0.92019  1.0000
  I   I377      1.0  0.85104  0.42488  0.21983  1.0000
  I   I378      1.0  0.84162  0.45031  0.56692  1.0000
  I   I379      1.0  0.91719  0.66518  0.09481  1.0000
  I   I380      1.0  0.92550  0.66003  0.43869  1.0000
  I   I381      1.0  0.90829  0.67289  0.75507  1.0000
  I   I382      1.0  0.77895  0.00114  0.15196  1.0000
  I   I383      1.0  0.80224  0.99815  0.48402  1.0000
  I   I384      1.0  0.80183  0.99994  0.82938  1.0000
