data_image0
_chemical_formula_structural       Ti96I384
_chemical_formula_sum              "Ti96 I384"
_cell_length_a       74.243
_cell_length_b       74.1913
_cell_length_c       36.3134
_cell_angle_alpha    88.7757
_cell_angle_beta     88.7757
_cell_angle_gamma    62.1586

_space_group_name_H-M_alt    "P 1"
_space_group_IT_number       1

loop_
  _space_group_symop_operation_xyz
  'x, y, z'

loop_
  _atom_site_type_symbol
  _atom_site_label
  _atom_site_symmetry_multiplicity
  _atom_site_fract_x
  _atom_site_fract_y
  _atom_site_fract_z
  _atom_site_occupancy
  Ti  Ti1       1.0  0.80657  0.20436  0.89706  1.0000
  Ti  Ti2       1.0  0.48261  0.66881  0.53446  1.0000
  Ti  Ti3       1.0  0.13859  0.03327  0.13052  1.0000
  Ti  Ti4       1.0  0.04730  0.27494  0.96332  1.0000
  Ti  Ti5       1.0  0.27743  0.02045  0.59866  1.0000
  Ti  Ti6       1.0  0.42445  0.36746  0.43121  1.0000
  Ti  Ti7       1.0  0.57893  0.39654  0.82352  1.0000
  Ti  Ti8       1.0  0.30661  0.62638  0.13237  1.0000
  Ti  Ti9       1.0  0.25770  0.30206  0.53545  1.0000
  Ti  Ti10      1.0  0.61662  0.71127  0.30763  1.0000
  Ti  Ti11      1.0  0.26548  0.11469  0.33733  1.0000
  Ti  Ti12      1.0  0.90214  0.06767  0.70234  1.0000
  Ti  Ti13      1.0  0.84793  0.81396  0.49356  1.0000
  Ti  Ti14      1.0  0.05677  0.31009  0.02634  1.0000
  Ti  Ti15      1.0  0.81812  0.63522  0.71235  1.0000
  Ti  Ti16      1.0  0.12759  0.46299  0.45332  1.0000
  Ti  Ti17      1.0  0.06561  0.05085  0.54284  1.0000
  Ti  Ti18      1.0  0.16578  0.29199  0.87069  1.0000
  Ti  Ti19      1.0  0.01597  0.97727  0.98514  1.0000
  Ti  Ti20      1.0  0.19340  0.53703  0.03008  1.0000
  Ti  Ti21      1.0  0.34016  0.62221  0.22667  1.0000
  Ti  Ti22      1.0  0.90321  0.29371  0.60009  1.0000
  Ti  Ti23      1.0  0.95435  0.88108  0.40453  1.0000
  Ti  Ti24      1.0  0.67646  0.25669  0.53314  1.0000
  Ti  Ti25      1.0  0.58150  0.55890  0.40842  1.0000
  Ti  Ti26      1.0  0.68299  0.97307  0.10182  1.0000
  Ti  Ti27      1.0  0.53992  0.42156  0.28224  1.0000
  Ti  Ti28      1.0  0.33811  0.11383  0.63825  1.0000
  Ti  Ti29      1.0  0.36045  0.75856  0.75462  1.0000
  Ti  Ti30      1.0  0.48618  0.84473  0.61038  1.0000
  Ti  Ti31      1.0  0.23035  0.76791  0.39539  1.0000
  Ti  Ti32      1.0  0.56007  0.72679  0.91471  1.0000
  Ti  Ti33      1.0  0.47375  0.53054  0.15177  1.0000
  Ti  Ti34      1.0  0.59332  0.56756  0.73631  1.0000
  Ti  Ti35      1.0  0.89873  0.62528  0.33621  1.0000
  Ti  Ti36      1.0  0.60399  0.25672  0.51508  1.0000
  Ti  Ti37      1.0  0.85985  0.74629  0.77439  1.0000
  Ti  Ti38      1.0  0.36476  0.23927  0.74513  1.0000
  Ti  Ti39      1.0  0.84580  0.64006  0.01710  1.0000
  Ti  Ti40      1.0  0.55750  0.75534  0.37035  1.0000
  Ti  Ti41      1.0  0.92186  0.40077  0.09854  1.0000
  Ti  Ti42      1.0  0.01191  0.44217  0.16878  1.0000
  Ti  Ti43      1.0  0.87590  0.89504  0.07268  1.0000
  Ti  Ti44      1.0  0.87512  0.45708  0.09151  1.0000
  Ti  Ti45      1.0  0.30112  0.20081  0.39076  1.0000
  Ti  Ti46      1.0  0.53408  0.99746  0.17639  1.0000
  Ti  Ti47      1.0  0.16498  0.95432  0.79301  1.0000
  Ti  Ti48      1.0  0.08336  0.07207  0.90520  1.0000
  Ti  Ti49      1.0  0.88479  0.90681  0.00092  1.0000
  Ti  Ti50      1.0  0.13588  0.12665  0.45255  1.0000
  Ti  Ti51      1.0  0.42972  0.68961  0.55735  1.0000
  Ti  Ti52      1.0  0.80758  0.45376  0.65607  1.0000
  Ti  Ti53      1.0  0.11783  0.81687  0.41609  1.0000
  Ti  Ti54      1.0  0.66022  0.97800  0.51960  1.0000
  Ti  Ti55      1.0  0.59423  0.68617  0.99234  1.0000
  Ti  Ti56      1.0  0.45844  0.96092  0.24667  1.0000
  Ti  Ti57      1.0  0.27605  0.32210  0.57519  1.0000
  Ti  Ti58      1.0  0.34249  0.70305  0.02006  1.0000
  Ti  Ti59      1.0  0.45965  0.48405  0.91963  1.0000
  Ti  Ti60      1.0  0.94617  0.10055  0.68113  1.0000
  Ti  Ti61      1.0  0.76691  0.75039  0.91757  1.0000
  Ti  Ti62      1.0  0.87928  0.74844  0.51626  1.0000
  Ti  Ti63      1.0  0.22591  0.55948  0.08302  1.0000
  Ti  Ti64      1.0  0.19670  0.26912  0.93802  1.0000
  Ti  Ti65      1.0  0.21721  0.74828  0.67579  1.0000
  Ti  Ti66      1.0  0.24249  0.47365  0.30166  1.0000
  Ti  Ti67      1.0  0.07508  0.28283  0.42351  1.0000
  Ti  Ti68      1.0  0.63850  0.06952  0.23556  1.0000
  Ti  Ti69      1.0  0.72935  0.94629  0.01528  1.0000
  Ti  Ti70      1.0  0.11013  0.30548  0.39358  1.0000
  Ti  Ti71      1.0  0.91048  0.87921  0.35536  1.0000
  Ti  Ti72      1.0  0.22462  0.91600  0.83424  1.0000
  Ti  Ti73      1.0  0.56197  0.36691  0.28607  1.0000
  Ti  Ti74      1.0  0.64741  0.55200  0.35362  1.0000
  Ti  Ti75      1.0  0.40543  0.09810  0.81717  1.0000
  Ti  Ti76      1.0  0.36313  0.09887  0.56646  1.0000
  Ti  Ti77      1.0  0.85997  0.59514  0.65561  1.0000
  Ti  Ti78      1.0  0.34531  0.80926  0.82749  1.0000
  Ti  Ti79      1.0  0.41949  0.50932  0.66818  1.0000
  Ti  Ti80      1.0  0.17949  0.11975  0.13260  1.0000
  Ti  Ti81      1.0  0.61802  0.73699  0.81376  1.0000
  Ti  Ti82      1.0  0.91509  0.36595  0.32393  1.0000
  Ti  Ti83      1.0  0.03230  0.47578  0.77405  1.0000
  Ti  Ti84      1.0  0.62276  0.20706  0.53228  1.0000
  Ti  Ti85      1.0  0.84188  0.78665  0.71132  1.0000
  Ti  Ti86      1.0  0.57049  0.45955  0.80787  1.0000
  Ti  Ti87      1.0  0.32076  0.20046  0.28609  1.0000
  Ti  Ti88      1.0  0.75482  0.73309  0.17191  1.0000
  Ti  Ti89      1.0  0.38363  0.43646  0.14674  1.0000
  Ti  Ti90      1.0  0.06838  0.41110  0.23349  1.0000
  Ti  Ti91      1.0  0.23216  0.78695  0.15542  1.0000
  Ti  Ti92      1.0  0.76738  0.88716  0.82204  1.0000
  Ti  Ti93      1.0  0.79665  0.19945  0.50877  1.0000
  Ti  Ti94      1.0  0.10173  0.03854  0.00158  1.0000
  Ti  Ti95      1.0  0.90135  0.50052  0.87858  1.0000
  Ti  Ti96      1.0  0.94179  0.31936  0.62093  1.0000
  I   I1        1.0  0.24806  0.93250  0.84169  1.0000
  I   I2        1.0  0.43474  0.70929  0.61075  1.0000
  I   I3        1.0  0.91374  0.89749  0.04346  1.0000
  I   I4        1.0  0.14889  0.78245  0.40192  1.0000
  I   I5        1.0  0.40954  0.40654  0.44750  1.0000
  I   I6        1.0  0.69555  0.95553  0.48765  1.0000
  I   I7        1.0  0.33897  0.60211  0.09338  1.0000
  I   I8        1.0  0.44551  0.99779  0.26862  1.0000
  I   I9        1.0  0.25815  0.35504  0.53348  1.0000
  I   I10       1.0  0.64689  0.71300  0.27455  1.0000
  I   I11       1.0  0.23112  0.11934  0.37543  1.0000
  I   I12       1.0  0.27056  0.05713  0.61763  1.0000
  I   I13       1.0  0.84027  0.83562  0.55383  1.0000
  I   I14       1.0  0.26332  0.54435  0.06870  1.0000
  I   I15       1.0  0.81802  0.62252  0.64651  1.0000
  I   I16       1.0  0.61822  0.68279  0.34794  1.0000
  I   I17       1.0  0.27893  0.45813  0.27374  1.0000
  I   I18       1.0  0.15493  0.29496  0.95199  1.0000
  I   I19       1.0  0.17820  0.57389  0.07214  1.0000
  I   I20       1.0  0.24761  0.15804  0.33603  1.0000
  I   I21       1.0  0.28305  0.62093  0.09036  1.0000
  I   I22       1.0  0.93175  0.90274  0.34508  1.0000
  I   I23       1.0  0.90501  0.88750  0.28583  1.0000
  I   I24       1.0  0.07924  0.24631  0.40968  1.0000
  I   I25       1.0  0.58617  0.56210  0.47584  1.0000
  I   I26       1.0  0.38956  0.13682  0.80992  1.0000
  I   I27       1.0  0.50339  0.45212  0.27417  1.0000
  I   I28       1.0  0.37548  0.11594  0.62480  1.0000
  I   I29       1.0  0.35949  0.83534  0.79708  1.0000
  I   I30       1.0  0.52066  0.84537  0.60793  1.0000
  I   I31       1.0  0.19104  0.08536  0.09626  1.0000
  I   I32       1.0  0.59424  0.77354  0.78009  1.0000
  I   I33       1.0  0.41332  0.54997  0.65533  1.0000
  I   I34       1.0  0.90029  0.65550  0.30122  1.0000
  I   I35       1.0  0.62025  0.19014  0.59454  1.0000
  I   I36       1.0  0.58900  0.54053  0.77990  1.0000
  I   I37       1.0  0.85440  0.79912  0.64506  1.0000
  I   I38       1.0  0.81878  0.68088  0.02292  1.0000
  I   I39       1.0  0.86973  0.70768  0.75892  1.0000
  I   I40       1.0  0.91799  0.44166  0.10498  1.0000
  I   I41       1.0  0.08452  0.37909  0.27167  1.0000
  I   I42       1.0  0.56223  0.78863  0.38801  1.0000
  I   I43       1.0  0.32003  0.71891  0.07757  1.0000
  I   I44       1.0  0.83939  0.46899  0.04851  1.0000
  I   I45       1.0  0.29620  0.23353  0.23817  1.0000
  I   I46       1.0  0.91981  0.47702  0.81642  1.0000
  I   I47       1.0  0.15434  0.95763  0.72737  1.0000
  I   I48       1.0  0.08715  0.03098  0.93058  1.0000
  I   I49       1.0  0.88730  0.86979  0.13654  1.0000
  I   I50       1.0  0.45625  0.70254  0.49382  1.0000
  I   I51       1.0  0.49945  0.68335  0.57518  1.0000
  I   I52       1.0  0.15855  0.12300  0.19218  1.0000
  I   I53       1.0  0.12278  0.83939  0.36273  1.0000
  I   I54       1.0  0.64689  0.95811  0.56218  1.0000
  I   I55       1.0  0.56703  0.37548  0.78472  1.0000
  I   I56       1.0  0.31324  0.59793  0.19104  1.0000
  I   I57       1.0  0.90624  0.53302  0.86149  1.0000
  I   I58       1.0  0.58737  0.75125  0.31286  1.0000
  I   I59       1.0  0.44914  0.49371  0.84880  1.0000
  I   I60       1.0  0.95409  0.12814  0.71193  1.0000
  I   I61       1.0  0.90337  0.74202  0.45274  1.0000
  I   I62       1.0  0.89595  0.72355  0.56859  1.0000
  I   I63       1.0  0.21896  0.59451  0.04592  1.0000
  I   I64       1.0  0.14631  0.44137  0.39513  1.0000
  I   I65       1.0  0.20831  0.77160  0.73259  1.0000
  I   I66       1.0  0.23816  0.44101  0.32122  1.0000
  I   I67       1.0  0.04264  0.98757  0.00460  1.0000
  I   I68       1.0  0.17381  0.56381  0.97402  1.0000
  I   I69       1.0  0.76825  0.91684  0.99523  1.0000
  I   I70       1.0  0.11746  0.31975  0.32951  1.0000
  I   I71       1.0  0.95338  0.91323  0.42964  1.0000
  I   I72       1.0  0.13124  0.98460  0.81548  1.0000
  I   I73       1.0  0.52129  0.39764  0.30231  1.0000
  I   I74       1.0  0.67500  0.94511  0.12608  1.0000
  I   I75       1.0  0.64656  0.00042  0.10072  1.0000
  I   I76       1.0  0.87178  0.58416  0.58899  1.0000
  I   I77       1.0  0.84420  0.65093  0.68248  1.0000
  I   I78       1.0  0.79675  0.17499  0.89988  1.0000
  I   I79       1.0  0.46343  0.56189  0.10880  1.0000
  I   I80       1.0  0.25269  0.77807  0.35153  1.0000
  I   I81       1.0  0.53430  0.75565  0.95236  1.0000
  I   I82       1.0  0.94016  0.34094  0.26879  1.0000
  I   I83       1.0  0.99175  0.48530  0.75514  1.0000
  I   I84       1.0  0.58371  0.23753  0.54190  1.0000
  I   I85       1.0  0.88515  0.74700  0.72445  1.0000
  I   I86       1.0  0.24575  0.49038  0.36597  1.0000
  I   I87       1.0  0.83803  0.62927  0.08042  1.0000
  I   I88       1.0  0.53210  0.75828  0.31828  1.0000
  I   I89       1.0  0.88080  0.41517  0.08513  1.0000
  I   I90       1.0  0.04543  0.43478  0.29214  1.0000
  I   I91       1.0  0.22864  0.80521  0.09197  1.0000
  I   I92       1.0  0.80457  0.86866  0.82041  1.0000
  I   I93       1.0  0.88428  0.47767  0.04809  1.0000
  I   I94       1.0  0.08167  0.02328  0.04336  1.0000
  I   I95       1.0  0.55599  0.01448  0.14559  1.0000
  I   I96       1.0  0.98041  0.29686  0.63138  1.0000
  I   I97       1.0  0.14352  0.99796  0.10491  1.0000
  I   I98       1.0  0.84280  0.20858  0.88983  1.0000
  I   I99       1.0  0.45060  0.65819  0.50687  1.0000
  I   I100      1.0  0.04818  0.28359  0.06201  1.0000
  I   I101      1.0  0.73762  0.76435  0.12421  1.0000
  I   I102      1.0  0.29792  0.99556  0.65258  1.0000
  I   I103      1.0  0.54696  0.43667  0.82473  1.0000
  I   I104      1.0  0.55372  0.70016  0.96505  1.0000
  I   I105      1.0  0.24753  0.27185  0.53103  1.0000
  I   I106      1.0  0.97849  0.06721  0.68720  1.0000
  I   I107      1.0  0.59808  0.71454  0.24234  1.0000
  I   I108      1.0  0.87019  0.08933  0.66727  1.0000
  I   I109      1.0  0.80548  0.62809  0.78197  1.0000
  I   I110      1.0  0.85566  0.73054  0.49921  1.0000
  I   I111      1.0  0.22117  0.52434  0.09417  1.0000
  I   I112      1.0  0.19560  0.30577  0.91363  1.0000
  I   I113      1.0  0.24711  0.75855  0.66146  1.0000
  I   I114      1.0  0.04778  0.04322  0.60143  1.0000
  I   I115      1.0  0.04435  0.29963  0.47365  1.0000
  I   I116      1.0  0.06593  0.32086  0.39016  1.0000
  I   I117      1.0  0.59973  0.08415  0.25002  1.0000
  I   I118      1.0  0.88530  0.27650  0.63516  1.0000
  I   I119      1.0  0.09755  0.32487  0.46014  1.0000
  I   I120      1.0  0.24014  0.88211  0.79590  1.0000
  I   I121      1.0  0.59966  0.33828  0.26812  1.0000
  I   I122      1.0  0.55135  0.59181  0.39463  1.0000
  I   I123      1.0  0.44097  0.07669  0.79253  1.0000
  I   I124      1.0  0.46372  0.88325  0.60107  1.0000
  I   I125      1.0  0.35409  0.07739  0.66796  1.0000
  I   I126      1.0  0.30722  0.83934  0.82202  1.0000
  I   I127      1.0  0.50325  0.52263  0.20291  1.0000
  I   I128      1.0  0.05704  0.24065  0.98306  1.0000
  I   I129      1.0  0.62689  0.72611  0.74798  1.0000
  I   I130      1.0  0.64174  0.26067  0.48562  1.0000
  I   I131      1.0  0.93362  0.32332  0.34274  1.0000
  I   I132      1.0  0.89166  0.64386  0.39702  1.0000
  I   I133      1.0  0.87933  0.64206  0.01234  1.0000
  I   I134      1.0  0.33507  0.26753  0.70682  1.0000
  I   I135      1.0  0.20493  0.50200  0.28755  1.0000
  I   I136      1.0  0.04846  0.44718  0.18486  1.0000
  I   I137      1.0  0.78276  0.48594  0.68792  1.0000
  I   I138      1.0  0.42194  0.42752  0.16947  1.0000
  I   I139      1.0  0.21086  0.80356  0.21016  1.0000
  I   I140      1.0  0.75669  0.85993  0.83697  1.0000
  I   I141      1.0  0.80235  0.23235  0.48685  1.0000
  I   I142      1.0  0.11238  0.06409  0.95767  1.0000
  I   I143      1.0  0.10626  0.04131  0.17110  1.0000
  I   I144      1.0  0.92441  0.35890  0.63557  1.0000
  I   I145      1.0  0.78716  0.24294  0.92226  1.0000
  I   I146      1.0  0.50399  0.64702  0.47832  1.0000
  I   I147      1.0  0.17148  0.03392  0.09315  1.0000
  I   I148      1.0  0.82655  0.42568  0.70127  1.0000
  I   I149      1.0  0.28440  0.01608  0.52966  1.0000
  I   I150      1.0  0.46416  0.34549  0.42950  1.0000
  I   I151      1.0  0.59483  0.65139  0.01748  1.0000
  I   I152      1.0  0.33793  0.63678  0.15000  1.0000
  I   I153      1.0  0.23755  0.32388  0.59925  1.0000
  I   I154      1.0  0.85883  0.93168  0.10921  1.0000
  I   I155      1.0  0.25081  0.11580  0.27401  1.0000
  I   I156      1.0  0.90750  0.11429  0.70746  1.0000
  I   I157      1.0  0.78824  0.67458  0.69446  1.0000
  I   I158      1.0  0.22692  0.52918  0.99158  1.0000
  I   I159      1.0  0.76075  0.72102  0.89774  1.0000
  I   I160      1.0  0.20787  0.26417  0.85950  1.0000
  I   I161      1.0  0.05317  0.04852  0.47563  1.0000
  I   I162      1.0  0.20325  0.23360  0.92970  1.0000
  I   I163      1.0  0.98873  0.97813  0.03131  1.0000
  I   I164      1.0  0.63984  0.03268  0.23179  1.0000
  I   I165      1.0  0.32930  0.66367  0.23208  1.0000
  I   I166      1.0  0.87994  0.33469  0.62233  1.0000
  I   I167      1.0  0.99365  0.87007  0.37890  1.0000
  I   I168      1.0  0.69699  0.25338  0.47403  1.0000
  I   I169      1.0  0.62125  0.52635  0.36357  1.0000
  I   I170      1.0  0.64255  0.55557  0.28423  1.0000
  I   I171      1.0  0.54928  0.39939  0.21999  1.0000
  I   I172      1.0  0.31593  0.15106  0.59891  1.0000
  I   I173      1.0  0.37710  0.71946  0.78157  1.0000
  I   I174      1.0  0.48233  0.82121  0.56481  1.0000
  I   I175      1.0  0.24377  0.75773  0.45915  1.0000
  I   I176      1.0  0.54779  0.70673  0.86408  1.0000
  I   I177      1.0  0.43821  0.49973  0.60545  1.0000
  I   I178      1.0  0.90648  0.39196  0.27302  1.0000
  I   I179      1.0  0.04445  0.47895  0.70996  1.0000
  I   I180      1.0  0.60666  0.19346  0.47942  1.0000
  I   I181      1.0  0.80409  0.81089  0.71370  1.0000
  I   I182      1.0  0.58398  0.42259  0.77218  1.0000
  I   I183      1.0  0.31164  0.16679  0.43704  1.0000
  I   I184      1.0  0.74158  0.73018  0.23651  1.0000
  I   I185      1.0  0.35728  0.45695  0.19438  1.0000
  I   I186      1.0  0.98346  0.48061  0.15610  1.0000
  I   I187      1.0  0.74971  0.91959  0.86364  1.0000
  I   I188      1.0  0.86530  0.47180  0.15883  1.0000
  I   I189      1.0  0.26211  0.20705  0.40405  1.0000
  I   I190      1.0  0.50311  0.02719  0.20683  1.0000
  I   I191      1.0  0.16619  0.08846  0.45097  1.0000
  I   I192      1.0  0.11357  0.05164  0.06109  1.0000
  I   I193      1.0  0.32123  0.77637  0.74046  1.0000
  I   I194      1.0  0.12082  0.13109  0.38080  1.0000
  I   I195      1.0  0.15634  0.03053  0.19276  1.0000
  I   I196      1.0  0.05215  0.27732  0.89052  1.0000
  I   I197      1.0  0.34521  0.66665  0.01690  1.0000
  I   I198      1.0  0.41169  0.34949  0.47961  1.0000
  I   I199      1.0  0.58510  0.72856  0.97395  1.0000
  I   I200      1.0  0.44917  0.93761  0.29688  1.0000
  I   I201      1.0  0.22390  0.31998  0.50301  1.0000
  I   I202      1.0  0.49169  0.45006  0.89562  1.0000
  I   I203      1.0  0.68326  0.98230  0.02616  1.0000
  I   I204      1.0  0.93032  0.07198  0.65552  1.0000
  I   I205      1.0  0.84324  0.78075  0.47259  1.0000
  I   I206      1.0  0.03556  0.33853  0.07323  1.0000
  I   I207      1.0  0.85036  0.60101  0.74285  1.0000
  I   I208      1.0  0.10394  0.50331  0.43793  1.0000
  I   I209      1.0  0.10048  0.01898  0.55753  1.0000
  I   I210      1.0  0.39178  0.49442  0.67039  1.0000
  I   I211      1.0  0.09013  0.27166  0.48611  1.0000
  I   I212      1.0  0.17898  0.51518  0.99991  1.0000
  I   I213      1.0  0.71189  0.92970  0.96644  1.0000
  I   I214      1.0  0.94514  0.27897  0.58583  1.0000
  I   I215      1.0  0.97650  0.85927  0.46965  1.0000
  I   I216      1.0  0.68742  0.21993  0.56917  1.0000
  I   I217      1.0  0.57128  0.53069  0.40194  1.0000
  I   I218      1.0  0.38111  0.08244  0.82912  1.0000
  I   I219      1.0  0.57563  0.39733  0.31574  1.0000
  I   I220      1.0  0.89120  0.59876  0.66682  1.0000
  I   I221      1.0  0.37684  0.78487  0.77000  1.0000
  I   I222      1.0  0.32826  0.09670  0.57599  1.0000
  I   I223      1.0  0.19160  0.79682  0.42539  1.0000
  I   I224      1.0  0.58554  0.73509  0.86853  1.0000
  I   I225      1.0  0.44206  0.55363  0.20059  1.0000
  I   I226      1.0  0.93684  0.37825  0.36262  1.0000
  I   I227      1.0  0.93622  0.59905  0.33264  1.0000
  I   I228      1.0  0.63506  0.23902  0.56090  1.0000
  I   I229      1.0  0.07351  0.08340  0.52427  1.0000
  I   I230      1.0  0.34959  0.22527  0.79993  1.0000
  I   I231      1.0  0.84463  0.61489  0.96564  1.0000
  I   I232      1.0  0.07978  0.32747  0.99526  1.0000
  I   I233      1.0  0.95828  0.38588  0.12060  1.0000
  I   I234      1.0  0.99791  0.43932  0.23816  1.0000
  I   I235      1.0  0.86774  0.90911  0.93039  1.0000
  I   I236      1.0  0.77546  0.19019  0.45733  1.0000
  I   I237      1.0  0.26978  0.76695  0.17757  1.0000
  I   I238      1.0  0.89721  0.47897  0.93413  1.0000
  I   I239      1.0  0.93287  0.33255  0.55403  1.0000
  I   I240      1.0  0.07113  0.06612  0.84184  1.0000
  I   I241      1.0  0.80020  0.20791  0.82854  1.0000
  I   I242      1.0  0.42587  0.66792  0.61762  1.0000
  I   I243      1.0  0.51698  0.99638  0.11579  1.0000
  I   I244      1.0  0.79308  0.72833  0.17222  1.0000
  I   I245      1.0  0.08583  0.81524  0.39658  1.0000
  I   I246      1.0  0.42100  0.36185  0.36402  1.0000
  I   I247      1.0  0.56631  0.39241  0.89215  1.0000
  I   I248      1.0  0.28297  0.65884  0.16532  1.0000
  I   I249      1.0  0.29208  0.30280  0.50357  1.0000
  I   I250      1.0  0.46806  0.51453  0.92612  1.0000
  I   I251      1.0  0.29652  0.08156  0.32732  1.0000
  I   I252      1.0  0.89054  0.08068  0.76909  1.0000
  I   I253      1.0  0.80656  0.84005  0.47602  1.0000
  I   I254      1.0  0.03021  0.32151  0.97026  1.0000
  I   I255      1.0  0.73648  0.77672  0.87987  1.0000
  I   I256      1.0  0.20967  0.74356  0.60092  1.0000
  I   I257      1.0  0.83077  0.75808  0.70769  1.0000
  I   I258      1.0  0.13816  0.33017  0.85721  1.0000
  I   I259      1.0  0.11309  0.27065  0.38719  1.0000
  I   I260      1.0  0.64263  0.08752  0.29120  1.0000
  I   I261      1.0  0.37794  0.60163  0.21439  1.0000
  I   I262      1.0  0.88710  0.29777  0.53679  1.0000
  I   I263      1.0  0.92020  0.88106  0.43776  1.0000
  I   I264      1.0  0.58198  0.26187  0.45800  1.0000
  I   I265      1.0  0.61449  0.57129  0.39592  1.0000
  I   I266      1.0  0.72909  0.95372  0.09381  1.0000
  I   I267      1.0  0.56282  0.36001  0.35991  1.0000
  I   I268      1.0  0.30965  0.13008  0.68402  1.0000
  I   I269      1.0  0.34808  0.82184  0.88852  1.0000
  I   I270      1.0  0.35884  0.08466  0.50756  1.0000
  I   I271      1.0  0.22204  0.74476  0.36135  1.0000
  I   I272      1.0  0.64330  0.70379  0.85634  1.0000
  I   I273      1.0  0.48627  0.49648  0.11087  1.0000
  I   I274      1.0  0.61059  0.58260  0.77501  1.0000
  I   I275      1.0  0.87584  0.61020  0.31386  1.0000
  I   I276      1.0  0.65898  0.18613  0.51242  1.0000
  I   I277      1.0  0.87946  0.37642  0.35385  1.0000
  I   I278      1.0  0.40068  0.23088  0.75660  1.0000
  I   I279      1.0  0.29047  0.23502  0.42649  1.0000
  I   I280      1.0  0.80118  0.42937  0.60534  1.0000
  I   I281      1.0  0.92305  0.36619  0.13493  1.0000
  I   I282      1.0  0.03919  0.39994  0.20340  1.0000
  I   I283      1.0  0.88987  0.86404  0.03201  1.0000
  I   I284      1.0  0.83089  0.16869  0.49935  1.0000
  I   I285      1.0  0.34027  0.18484  0.35344  1.0000
  I   I286      1.0  0.94207  0.49163  0.89051  1.0000
  I   I287      1.0  0.17442  0.91777  0.82445  1.0000
  I   I288      1.0  0.07491  0.11157  0.89745  1.0000
  I   I289      1.0  0.91946  0.88750  0.95330  1.0000
  I   I290      1.0  0.11393  0.12468  0.51128  1.0000
  I   I291      1.0  0.49293  0.63801  0.58228  1.0000
  I   I292      1.0  0.83175  0.46680  0.62497  1.0000
  I   I293      1.0  0.13238  0.82648  0.47425  1.0000
  I   I294      1.0  0.64239  0.98780  0.45696  1.0000
  I   I295      1.0  0.62004  0.37726  0.83840  1.0000
  I   I296      1.0  0.43844  0.96025  0.18609  1.0000
  I   I297      1.0  0.28331  0.27769  0.60102  1.0000
  I   I298      1.0  0.37909  0.69650  0.04411  1.0000
  I   I299      1.0  0.10347  0.44806  0.45778  1.0000
  I   I300      1.0  0.79193  0.18703  0.58571  1.0000
  I   I301      1.0  0.79090  0.75184  0.86250  1.0000
  I   I302      1.0  0.87026  0.81998  0.44838  1.0000
  I   I303      1.0  0.60171  0.73274  0.39533  1.0000
  I   I304      1.0  0.16916  0.27831  0.80092  1.0000
  I   I305      1.0  0.13937  0.46900  0.52136  1.0000
  I   I306      1.0  0.58329  0.45450  0.87635  1.0000
  I   I307      1.0  0.99177  0.00690  0.94519  1.0000
  I   I308      1.0  0.22996  0.58194  0.13522  1.0000
  I   I309      1.0  0.32755  0.61233  0.28674  1.0000
  I   I310      1.0  0.83781  0.90747  0.06466  1.0000
  I   I311      1.0  0.87294  0.90305  0.37713  1.0000
  I   I312      1.0  0.22293  0.90112  0.90052  1.0000
  I   I313      1.0  0.54094  0.34617  0.27990  1.0000
  I   I314      1.0  0.66420  0.57569  0.36398  1.0000
  I   I315      1.0  0.41289  0.09595  0.88632  1.0000
  I   I316      1.0  0.39675  0.06459  0.59423  1.0000
  I   I317      1.0  0.38838  0.10987  0.53301  1.0000
  I   I318      1.0  0.33705  0.77637  0.83063  1.0000
  I   I319      1.0  0.44649  0.50180  0.71921  1.0000
  I   I320      1.0  0.00772  0.29206  0.97011  1.0000
  I   I321      1.0  0.61956  0.67117  0.93765  1.0000
  I   I322      1.0  0.55900  0.59918  0.73199  1.0000
  I   I323      1.0  0.03203  0.44429  0.81174  1.0000
  I   I324      1.0  0.58912  0.29273  0.53982  1.0000
  I   I325      1.0  0.85721  0.74827  0.84737  1.0000
  I   I326      1.0  0.60005  0.46445  0.77771  1.0000
  I   I327      1.0  0.30275  0.23332  0.33421  1.0000
  I   I328      1.0  0.54645  0.73819  0.42179  1.0000
  I   I329      1.0  0.39241  0.40161  0.11693  1.0000
  I   I330      1.0  0.10358  0.40624  0.20411  1.0000
  I   I331      1.0  0.29406  0.18917  0.31120  1.0000
  I   I332      1.0  0.32610  0.72854  0.95892  1.0000
  I   I333      1.0  0.93030  0.39174  0.03446  1.0000
  I   I334      1.0  0.14367  0.00606  0.99417  1.0000
  I   I335      1.0  0.55876  0.96133  0.21650  1.0000
  I   I336      1.0  0.92245  0.30590  0.66990  1.0000
  I   I337      1.0  0.87329  0.94685  0.00845  1.0000
  I   I338      1.0  0.14201  0.15666  0.47481  1.0000
  I   I339      1.0  0.39218  0.70936  0.52722  1.0000
  I   I340      1.0  0.20624  0.13029  0.15545  1.0000
  I   I341      1.0  0.23960  0.02332  0.61185  1.0000
  I   I342      1.0  0.67641  0.99437  0.56836  1.0000
  I   I343      1.0  0.57997  0.70094  0.05704  1.0000
  I   I344      1.0  0.49981  0.94411  0.26015  1.0000
  I   I345      1.0  0.30144  0.32467  0.61257  1.0000
  I   I346      1.0  0.14769  0.28778  0.41804  1.0000
  I   I347      1.0  0.43917  0.48950  0.97672  1.0000
  I   I348      1.0  0.95487  0.11338  0.61719  1.0000
  I   I349      1.0  0.79719  0.73568  0.96244  1.0000
  I   I350      1.0  0.88813  0.78278  0.52938  1.0000
  I   I351      1.0  0.08465  0.27449  0.99007  1.0000
  I   I352      1.0  0.21134  0.25512  0.00687  1.0000
  I   I353      1.0  0.22601  0.71315  0.70293  1.0000
  I   I354      1.0  0.54641  0.49112  0.77166  1.0000
  I   I355      1.0  0.03163  0.94596  0.94249  1.0000
  I   I356      1.0  0.64754  0.08274  0.17479  1.0000
  I   I357      1.0  0.69143  0.99068  0.15697  1.0000
  I   I358      1.0  0.69636  0.26394  0.58345  1.0000
  I   I359      1.0  0.90765  0.84341  0.36136  1.0000
  I   I360      1.0  0.20623  0.93433  0.76959  1.0000
  I   I361      1.0  0.55368  0.44989  0.25568  1.0000
  I   I362      1.0  0.67505  0.51285  0.35904  1.0000
  I   I363      1.0  0.73512  0.97549  0.99108  1.0000
  I   I364      1.0  0.48129  0.83900  0.68148  1.0000
  I   I365      1.0  0.85612  0.56133  0.66566  1.0000
  I   I366      1.0  0.37255  0.74479  0.69232  1.0000
  I   I367      1.0  0.37568  0.54032  0.65119  1.0000
  I   I368      1.0  0.14576  0.14485  0.09803  1.0000
  I   I369      1.0  0.63400  0.76185  0.81763  1.0000
  I   I370      1.0  0.60678  0.56428  0.66528  1.0000
  I   I371      1.0  0.03395  0.50375  0.82133  1.0000
  I   I372      1.0  0.64081  0.29185  0.56009  1.0000
  I   I373      1.0  0.85603  0.79576  0.76753  1.0000
  I   I374      1.0  0.36896  0.20714  0.71070  1.0000
  I   I375      1.0  0.34430  0.17234  0.24068  1.0000
  I   I376      1.0  0.76629  0.69573  0.14930  1.0000
  I   I377      1.0  0.38347  0.45829  0.09326  1.0000
  I   I378      1.0  0.03108  0.42847  0.10974  1.0000
  I   I379      1.0  0.22348  0.75912  0.13431  1.0000
  I   I380      1.0  0.75015  0.90602  0.76016  1.0000
  I   I381      1.0  0.89024  0.03722  0.70351  1.0000
  I   I382      1.0  0.06341  0.08574  0.98116  1.0000
  I   I383      1.0  0.87068  0.52616  0.92150  1.0000
  I   I384      1.0  0.19201  0.95335  0.85378  1.0000
