data_image0
_chemical_formula_structural       Ti96I384
_chemical_formula_sum              "Ti96 I384"
_cell_length_a       51.4436
_cell_length_b       51.4472
_cell_length_c       24.8459
_cell_angle_alpha    88.7757
_cell_angle_beta     88.7757
_cell_angle_gamma    62.1586

_space_group_name_H-M_alt    "P 1"
_space_group_IT_number       1

loop_
  _space_group_symop_operation_xyz
  'x, y, z'

loop_
  _atom_site_type_symbol
  _atom_site_label
  _atom_site_symmetry_multiplicity
  _atom_site_fract_x
  _atom_site_fract_y
  _atom_site_fract_z
  _atom_site_occupancy
  Ti  Ti1       1.0  0.40544  0.83810  0.39283  1.0000
  Ti  Ti2       1.0  0.12764  0.99507  0.85480  1.0000
  Ti  Ti3       1.0  0.37173  0.89092  0.14948  1.0000
  Ti  Ti4       1.0  0.23962  0.04614  0.51972  1.0000
  Ti  Ti5       1.0  0.09787  0.38535  0.61559  1.0000
  Ti  Ti6       1.0  0.14654  0.21945  0.77857  1.0000
  Ti  Ti7       1.0  0.91919  0.72235  0.00112  1.0000
  Ti  Ti8       1.0  0.89631  0.07043  0.37766  1.0000
  Ti  Ti9       1.0  0.91991  0.75754  0.25708  1.0000
  Ti  Ti10      1.0  0.23737  0.78320  0.88010  1.0000
  Ti  Ti11      1.0  0.05508  0.73390  0.71583  1.0000
  Ti  Ti12      1.0  0.96665  0.88084  0.62304  1.0000
  Ti  Ti13      1.0  0.36692  0.14843  0.36827  1.0000
  Ti  Ti14      1.0  0.40839  0.04358  0.67263  1.0000
  Ti  Ti15      1.0  0.34904  0.07139  0.12655  1.0000
  Ti  Ti16      1.0  0.29176  0.54647  0.13899  1.0000
  Ti  Ti17      1.0  0.13468  0.67908  0.19315  1.0000
  Ti  Ti18      1.0  0.25408  0.48018  0.62444  1.0000
  Ti  Ti19      1.0  0.46066  0.61046  0.35766  1.0000
  Ti  Ti20      1.0  0.65357  0.70409  0.66162  1.0000
  Ti  Ti21      1.0  0.36586  0.59884  0.59826  1.0000
  Ti  Ti22      1.0  0.44620  0.76113  0.72375  1.0000
  Ti  Ti23      1.0  0.64475  0.82821  0.95377  1.0000
  Ti  Ti24      1.0  0.48467  0.73900  0.01416  1.0000
  Ti  Ti25      1.0  0.39394  0.35209  0.87582  1.0000
  Ti  Ti26      1.0  0.31538  0.33628  0.13850  1.0000
  Ti  Ti27      1.0  0.62569  0.36733  0.55686  1.0000
  Ti  Ti28      1.0  0.54512  0.33945  0.15737  1.0000
  Ti  Ti29      1.0  0.62784  0.54028  0.02372  1.0000
  Ti  Ti30      1.0  0.54207  0.57796  0.78092  1.0000
  Ti  Ti31      1.0  0.92725  0.54166  0.04753  1.0000
  Ti  Ti32      1.0  0.77351  0.43700  0.66331  1.0000
  Ti  Ti33      1.0  0.85367  0.51301  0.78790  1.0000
  Ti  Ti34      1.0  0.77268  0.93869  0.21693  1.0000
  Ti  Ti35      1.0  0.64782  0.68614  0.12576  1.0000
  Ti  Ti36      1.0  0.82377  0.64991  0.59917  1.0000
  Ti  Ti37      1.0  0.72007  0.20223  0.31032  1.0000
  Ti  Ti38      1.0  0.79154  0.28221  0.22389  1.0000
  Ti  Ti39      1.0  0.69388  0.24213  0.94314  1.0000
  Ti  Ti40      1.0  0.85938  0.33290  0.02272  1.0000
  Ti  Ti41      1.0  0.83256  0.23920  0.54994  1.0000
  Ti  Ti42      1.0  0.28147  0.83023  0.58754  1.0000
  Ti  Ti43      1.0  0.02735  0.37162  0.25479  1.0000
  Ti  Ti44      1.0  0.99904  0.62054  0.47457  1.0000
  Ti  Ti45      1.0  0.05346  0.57120  0.77798  1.0000
  Ti  Ti46      1.0  0.71588  0.86595  0.51220  1.0000
  Ti  Ti47      1.0  0.61904  0.02626  0.45320  1.0000
  Ti  Ti48      1.0  0.52588  0.21287  0.05492  1.0000
  Ti  Ti49      1.0  0.34574  0.90317  0.28758  1.0000
  Ti  Ti50      1.0  0.08915  0.97128  0.01667  1.0000
  Ti  Ti51      1.0  0.20847  0.98972  0.86973  1.0000
  Ti  Ti52      1.0  0.17078  0.05280  0.56769  1.0000
  Ti  Ti53      1.0  0.13320  0.33642  0.54171  1.0000
  Ti  Ti54      1.0  0.15551  0.21708  0.91458  1.0000
  Ti  Ti55      1.0  0.87933  0.79001  0.10260  1.0000
  Ti  Ti56      1.0  0.85624  0.07613  0.52494  1.0000
  Ti  Ti57      1.0  0.96370  0.79206  0.34010  1.0000
  Ti  Ti58      1.0  0.17255  0.80944  0.78163  1.0000
  Ti  Ti59      1.0  0.30719  0.74732  0.96944  1.0000
  Ti  Ti60      1.0  0.00236  0.81131  0.67070  1.0000
  Ti  Ti61      1.0  0.38983  0.07546  0.27651  1.0000
  Ti  Ti62      1.0  0.35061  0.23632  0.37702  1.0000
  Ti  Ti63      1.0  0.37183  0.12337  0.70228  1.0000
  Ti  Ti64      1.0  0.24689  0.44692  0.50808  1.0000
  Ti  Ti65      1.0  0.20941  0.59160  0.18270  1.0000
  Ti  Ti66      1.0  0.13343  0.67299  0.34805  1.0000
  Ti  Ti67      1.0  0.41044  0.64329  0.43738  1.0000
  Ti  Ti68      1.0  0.68814  0.66558  0.80539  1.0000
  Ti  Ti69      1.0  0.27571  0.63217  0.62798  1.0000
  Ti  Ti70      1.0  0.46438  0.74793  0.85624  1.0000
  Ti  Ti71      1.0  0.55727  0.88330  0.95579  1.0000
  Ti  Ti72      1.0  0.72568  0.82669  0.01803  1.0000
  Ti  Ti73      1.0  0.57983  0.43029  0.63044  1.0000
  Ti  Ti74      1.0  0.32728  0.33971  0.97316  1.0000
  Ti  Ti75      1.0  0.24132  0.39189  0.21811  1.0000
  Ti  Ti76      1.0  0.59413  0.57109  0.64868  1.0000
  Ti  Ti77      1.0  0.51571  0.41195  0.15735  1.0000
  Ti  Ti78      1.0  0.60179  0.51823  0.89328  1.0000
  Ti  Ti79      1.0  0.92199  0.49739  0.90278  1.0000
  Ti  Ti80      1.0  0.99552  0.54114  0.12075  1.0000
  Ti  Ti81      1.0  0.84798  0.42659  0.76245  1.0000
  Ti  Ti82      1.0  0.71824  0.03841  0.20405  1.0000
  Ti  Ti83      1.0  0.70125  0.69784  0.27016  1.0000
  Ti  Ti84      1.0  0.77503  0.67106  0.50612  1.0000
  Ti  Ti85      1.0  0.64507  0.19475  0.31687  1.0000
  Ti  Ti86      1.0  0.79502  0.19814  0.21648  1.0000
  Ti  Ti87      1.0  0.66868  0.32976  0.88628  1.0000
  Ti  Ti88      1.0  0.93962  0.27915  0.97902  1.0000
  Ti  Ti89      1.0  0.81079  0.22719  0.70102  1.0000
  Ti  Ti90      1.0  0.24648  0.85073  0.43355  1.0000
  Ti  Ti91      1.0  0.12616  0.55462  0.86441  1.0000
  Ti  Ti92      1.0  0.97699  0.34423  0.30427  1.0000
  Ti  Ti93      1.0  0.99898  0.61318  0.63645  1.0000
  Ti  Ti94      1.0  0.45894  0.18346  0.05709  1.0000
  Ti  Ti95      1.0  0.63859  0.93711  0.46633  1.0000
  Ti  Ti96      1.0  0.56364  0.10969  0.40191  1.0000
  I   I1        1.0  0.06822  0.93194  0.02385  1.0000
  I   I2        1.0  0.16805  0.97751  0.94165  1.0000
  I   I3        1.0  0.30770  0.94698  0.33792  1.0000
  I   I4        1.0  0.11002  0.30205  0.53188  1.0000
  I   I5        1.0  0.13994  0.17969  0.94488  1.0000
  I   I6        1.0  0.13485  0.18086  0.72844  1.0000
  I   I7        1.0  0.85076  0.12113  0.43620  1.0000
  I   I8        1.0  0.88675  0.04522  0.29831  1.0000
  I   I9        1.0  0.93591  0.75698  0.13717  1.0000
  I   I10       1.0  0.26234  0.73031  0.93635  1.0000
  I   I11       1.0  0.06523  0.78368  0.66864  1.0000
  I   I12       1.0  0.17798  0.82974  0.68092  1.0000
  I   I13       1.0  0.35687  0.19746  0.29713  1.0000
  I   I14       1.0  0.42929  0.07749  0.73191  1.0000
  I   I15       1.0  0.37050  0.03697  0.22801  1.0000
  I   I16       1.0  0.26586  0.54741  0.24614  1.0000
  I   I17       1.0  0.09616  0.66737  0.25738  1.0000
  I   I18       1.0  0.27803  0.41967  0.60455  1.0000
  I   I19       1.0  0.65867  0.63820  0.81535  1.0000
  I   I20       1.0  0.22986  0.67816  0.60001  1.0000
  I   I21       1.0  0.39779  0.61667  0.64691  1.0000
  I   I22       1.0  0.52946  0.93835  0.94146  1.0000
  I   I23       1.0  0.61080  0.85412  0.86438  1.0000
  I   I24       1.0  0.43532  0.73142  0.93283  1.0000
  I   I25       1.0  0.32897  0.31734  0.87592  1.0000
  I   I26       1.0  0.26200  0.39014  0.10494  1.0000
  I   I27       1.0  0.56144  0.43745  0.52399  1.0000
  I   I28       1.0  0.46582  0.41721  0.19566  1.0000
  I   I29       1.0  0.59149  0.50200  0.99108  1.0000
  I   I30       1.0  0.55234  0.55211  0.67236  1.0000
  I   I31       1.0  0.99373  0.51570  0.03121  1.0000
  I   I32       1.0  0.83977  0.40276  0.67550  1.0000
  I   I33       1.0  0.91996  0.48727  0.79307  1.0000
  I   I34       1.0  0.69209  0.70128  0.14528  1.0000
  I   I35       1.0  0.81268  0.62595  0.44600  1.0000
  I   I36       1.0  0.66187  0.06878  0.18717  1.0000
  I   I37       1.0  0.73208  0.24160  0.23411  1.0000
  I   I38       1.0  0.71035  0.34221  0.91796  1.0000
  I   I39       1.0  0.63075  0.19214  0.21874  1.0000
  I   I40       1.0  0.80928  0.18551  0.75281  1.0000
  I   I41       1.0  0.22323  0.83253  0.36056  1.0000
  I   I42       1.0  0.89661  0.28313  0.07274  1.0000
  I   I43       1.0  0.96198  0.33261  0.39927  1.0000
  I   I44       1.0  0.01869  0.56936  0.54552  1.0000
  I   I45       1.0  0.01170  0.55642  0.79449  1.0000
  I   I46       1.0  0.64860  0.90179  0.56571  1.0000
  I   I47       1.0  0.55365  0.06436  0.43380  1.0000
  I   I48       1.0  0.41664  0.20033  0.98649  1.0000
  I   I49       1.0  0.39275  0.85299  0.23797  1.0000
  I   I50       1.0  0.08143  0.01891  0.94135  1.0000
  I   I51       1.0  0.22979  0.99683  0.77861  1.0000
  I   I52       1.0  0.23604  0.03781  0.62046  1.0000
  I   I53       1.0  0.07209  0.35433  0.64888  1.0000
  I   I54       1.0  0.18426  0.23638  0.82982  1.0000
  I   I55       1.0  0.82088  0.81503  0.09267  1.0000
  I   I56       1.0  0.87049  0.03642  0.59557  1.0000
  I   I57       1.0  0.91099  0.82285  0.28032  1.0000
  I   I58       1.0  0.24002  0.81930  0.95486  1.0000
  I   I59       1.0  0.28982  0.75605  0.07039  1.0000
  I   I60       1.0  0.94106  0.84252  0.66247  1.0000
  I   I61       1.0  0.42056  0.10853  0.29560  1.0000
  I   I62       1.0  0.36690  0.26886  0.32305  1.0000
  I   I63       1.0  0.35448  0.08216  0.74342  1.0000
  I   I64       1.0  0.31411  0.54755  0.04750  1.0000
  I   I65       1.0  0.15468  0.63168  0.12292  1.0000
  I   I66       1.0  0.12160  0.63455  0.40045  1.0000
  I   I67       1.0  0.35727  0.68949  0.40720  1.0000
  I   I68       1.0  0.61446  0.70914  0.73627  1.0000
  I   I69       1.0  0.31156  0.65931  0.60439  1.0000
  I   I70       1.0  0.49250  0.76957  0.79994  1.0000
  I   I71       1.0  0.60450  0.80972  0.98791  1.0000
  I   I72       1.0  0.70767  0.85874  0.10229  1.0000
  I   I73       1.0  0.58114  0.36527  0.60704  1.0000
  I   I74       1.0  0.34775  0.35652  0.07641  1.0000
  I   I75       1.0  0.23765  0.38172  0.31971  1.0000
  I   I76       1.0  0.52177  0.31433  0.22877  1.0000
  I   I77       1.0  0.56522  0.37244  0.09382  1.0000
  I   I78       1.0  0.60517  0.54732  0.78437  1.0000
  I   I79       1.0  0.91821  0.49358  0.02306  1.0000
  I   I80       1.0  0.97110  0.58121  0.20579  1.0000
  I   I81       1.0  0.84841  0.46806  0.83445  1.0000
  I   I82       1.0  0.81590  0.93553  0.27948  1.0000
  I   I83       1.0  0.60799  0.66832  0.14750  1.0000
  I   I84       1.0  0.74582  0.71347  0.43785  1.0000
  I   I85       1.0  0.71915  0.16184  0.24566  1.0000
  I   I86       1.0  0.85268  0.15764  0.20072  1.0000
  I   I87       1.0  0.74685  0.21759  0.98590  1.0000
  I   I88       1.0  0.82149  0.38914  0.01027  1.0000
  I   I89       1.0  0.79761  0.25125  0.46833  1.0000
  I   I90       1.0  0.27876  0.86895  0.50059  1.0000
  I   I91       1.0  0.17887  0.51000  0.85847  1.0000
  I   I92       1.0  0.94554  0.32258  0.25387  1.0000
  I   I93       1.0  0.00676  0.62471  0.73221  1.0000
  I   I94       1.0  0.41692  0.19468  0.13502  1.0000
  I   I95       1.0  0.63634  0.96527  0.37036  1.0000
  I   I96       1.0  0.57208  0.14163  0.32857  1.0000
  I   I97       1.0  0.30715  0.91408  0.19974  1.0000
  I   I98       1.0  0.46446  0.82046  0.39039  1.0000
  I   I99       1.0  0.13637  0.03822  0.81730  1.0000
  I   I100      1.0  0.13613  0.05776  0.49048  1.0000
  I   I101      1.0  0.29406  0.00538  0.48931  1.0000
  I   I102      1.0  0.13502  0.37288  0.70181  1.0000
  I   I103      1.0  0.86419  0.79253  0.21420  1.0000
  I   I104      1.0  0.95745  0.71733  0.92470  1.0000
  I   I105      1.0  0.00150  0.75937  0.41695  1.0000
  I   I106      1.0  0.92688  0.91242  0.54268  1.0000
  I   I107      1.0  0.29841  0.76124  0.84924  1.0000
  I   I108      1.0  0.99573  0.76140  0.63763  1.0000
  I   I109      1.0  0.39749  0.04882  0.37118  1.0000
  I   I110      1.0  0.39809  0.18332  0.40508  1.0000
  I   I111      1.0  0.41261  0.99285  0.71345  1.0000
  I   I112      1.0  0.19774  0.49326  0.50067  1.0000
  I   I113      1.0  0.25340  0.60513  0.15225  1.0000
  I   I114      1.0  0.08871  0.71846  0.13238  1.0000
  I   I115      1.0  0.39179  0.61429  0.50576  1.0000
  I   I116      1.0  0.48546  0.57120  0.27945  1.0000
  I   I117      1.0  0.64246  0.75755  0.63308  1.0000
  I   I118      1.0  0.45234  0.78649  0.95652  1.0000
  I   I119      1.0  0.48646  0.73016  0.65243  1.0000
  I   I120      1.0  0.66935  0.77188  0.91378  1.0000
  I   I121      1.0  0.62480  0.34988  0.46442  1.0000
  I   I122      1.0  0.38804  0.31365  0.96082  1.0000
  I   I123      1.0  0.32085  0.36401  0.23080  1.0000
  I   I124      1.0  0.54461  0.61975  0.69695  1.0000
  I   I125      1.0  0.59429  0.29147  0.15065  1.0000
  I   I126      1.0  0.59064  0.56911  0.93152  1.0000
  I   I127      1.0  0.86031  0.52244  0.89680  1.0000
  I   I128      1.0  0.93593  0.52839  0.15284  1.0000
  I   I129      1.0  0.77616  0.46654  0.75002  1.0000
  I   I130      1.0  0.79697  0.61797  0.59489  1.0000
  I   I131      1.0  0.71808  0.98572  0.23955  1.0000
  I   I132      1.0  0.66504  0.74007  0.33036  1.0000
  I   I133      1.0  0.61950  0.37496  0.87742  1.0000
  I   I134      1.0  0.78091  0.17372  0.30033  1.0000
  I   I135      1.0  0.74695  0.31217  0.16275  1.0000
  I   I136      1.0  0.32780  0.83194  0.62996  1.0000
  I   I137      1.0  0.94670  0.22784  0.97105  1.0000
  I   I138      1.0  0.80239  0.20844  0.60670  1.0000
  I   I139      1.0  0.04100  0.60661  0.86627  1.0000
  I   I140      1.0  0.94024  0.40104  0.30657  1.0000
  I   I141      1.0  0.02839  0.63284  0.55655  1.0000
  I   I142      1.0  0.50557  0.18614  0.99349  1.0000
  I   I143      1.0  0.69858  0.92381  0.48531  1.0000
  I   I144      1.0  0.61310  0.05554  0.35540  1.0000
  I   I145      1.0  0.34297  0.86806  0.36289  1.0000
  I   I146      1.0  0.11638  0.94549  0.91846  1.0000
  I   I147      1.0  0.35189  0.92896  0.06571  1.0000
  I   I148      1.0  0.18691  0.09697  0.49462  1.0000
  I   I149      1.0  0.08357  0.39174  0.50271  1.0000
  I   I150      1.0  0.18426  0.16713  0.84124  1.0000
  I   I151      1.0  0.87141  0.73952  0.08673  1.0000
  I   I152      1.0  0.94683  0.03429  0.42397  1.0000
  I   I153      1.0  0.97320  0.74471  0.26861  1.0000
  I   I154      1.0  0.18125  0.78954  0.91580  1.0000
  I   I155      1.0  0.08955  0.70590  0.63015  1.0000
  I   I156      1.0  0.00302  0.82569  0.56696  1.0000
  I   I157      1.0  0.33466  0.12739  0.30819  1.0000
  I   I158      1.0  0.37703  0.05489  0.58846  1.0000
  I   I159      1.0  0.29474  0.10682  0.15617  1.0000
  I   I160      1.0  0.21990  0.53689  0.62668  1.0000
  I   I161      1.0  0.17644  0.63487  0.26120  1.0000
  I   I162      1.0  0.29930  0.47562  0.68039  1.0000
  I   I163      1.0  0.40822  0.60791  0.35016  1.0000
  I   I164      1.0  0.66714  0.69898  0.88530  1.0000
  I   I165      1.0  0.34103  0.58888  0.69065  1.0000
  I   I166      1.0  0.41035  0.78933  0.82448  1.0000
  I   I167      1.0  0.61063  0.88098  0.99290  1.0000
  I   I168      1.0  0.52774  0.74861  0.04936  1.0000
  I   I169      1.0  0.36932  0.35759  0.78544  1.0000
  I   I170      1.0  0.31487  0.30313  0.03212  1.0000
  I   I171      1.0  0.63837  0.41007  0.53141  1.0000
  I   I172      1.0  0.57670  0.58808  0.55480  1.0000
  I   I173      1.0  0.58469  0.57465  0.08300  1.0000
  I   I174      1.0  0.54366  0.52667  0.84595  1.0000
  I   I175      1.0  0.92442  0.55101  0.92670  1.0000
  I   I176      1.0  0.76507  0.38984  0.66630  1.0000
  I   I177      1.0  0.84642  0.48238  0.70547  1.0000
  I   I178      1.0  0.76452  0.98828  0.14967  1.0000
  I   I179      1.0  0.65335  0.68570  0.23526  1.0000
  I   I180      1.0  0.82693  0.69409  0.52678  1.0000
  I   I181      1.0  0.66619  0.24108  0.26320  1.0000
  I   I182      1.0  0.82142  0.22490  0.27932  1.0000
  I   I183      1.0  0.67174  0.21584  0.99940  1.0000
  I   I184      1.0  0.87528  0.30470  0.91934  1.0000
  I   I185      1.0  0.87263  0.25522  0.50822  1.0000
  I   I186      1.0  0.21762  0.84813  0.52884  1.0000
  I   I187      1.0  0.08167  0.33851  0.20930  1.0000
  I   I188      1.0  0.95486  0.61780  0.43166  1.0000
  I   I189      1.0  0.06378  0.55544  0.67290  1.0000
  I   I190      1.0  0.72470  0.80945  0.52779  1.0000
  I   I191      1.0  0.60435  0.99539  0.53008  1.0000
  I   I192      1.0  0.57632  0.16921  0.08218  1.0000
  I   I193      1.0  0.40525  0.78908  0.38802  1.0000
  I   I194      1.0  0.09010  0.00165  0.78515  1.0000
  I   I195      1.0  0.42513  0.87194  0.11373  1.0000
  I   I196      1.0  0.27216  0.07499  0.51856  1.0000
  I   I197      1.0  0.05573  0.43691  0.65612  1.0000
  I   I198      1.0  0.15544  0.24713  0.69916  1.0000
  I   I199      1.0  0.89801  0.68697  0.96326  1.0000
  I   I200      1.0  0.81847  0.11776  0.57905  1.0000
  I   I201      1.0  0.89397  0.75956  0.35112  1.0000
  I   I202      1.0  0.22230  0.82424  0.80180  1.0000
  I   I203      1.0  0.08535  0.72624  0.80085  1.0000
  I   I204      1.0  0.99968  0.90257  0.57807  1.0000
  I   I205      1.0  0.40627  0.10774  0.42726  1.0000
  I   I206      1.0  0.46293  0.01752  0.63467  1.0000
  I   I207      1.0  0.34188  0.08807  0.02590  1.0000
  I   I208      1.0  0.33726  0.54208  0.19097  1.0000
  I   I209      1.0  0.17048  0.69979  0.15788  1.0000
  I   I210      1.0  0.21372  0.47514  0.67711  1.0000
  I   I211      1.0  0.50537  0.62041  0.38271  1.0000
  I   I212      1.0  0.73887  0.63237  0.84873  1.0000
  I   I213      1.0  0.31448  0.59678  0.54913  1.0000
  I   I214      1.0  0.43757  0.81162  0.68644  1.0000
  I   I215      1.0  0.67835  0.80792  0.04693  1.0000
  I   I216      1.0  0.45376  0.76578  0.10565  1.0000
  I   I217      1.0  0.39489  0.40254  0.86203  1.0000
  I   I218      1.0  0.36128  0.28424  0.15557  1.0000
  I   I219      1.0  0.63539  0.38790  0.67065  1.0000
  I   I220      1.0  0.54308  0.37398  0.24377  1.0000
  I   I221      1.0  0.64848  0.50130  0.09219  1.0000
  I   I222      1.0  0.52623  0.61176  0.86474  1.0000
  I   I223      1.0  0.87010  0.57201  0.03915  1.0000
  I   I224      1.0  0.71400  0.46694  0.66738  1.0000
  I   I225      1.0  0.79922  0.54527  0.80797  1.0000
  I   I226      1.0  0.75115  0.91066  0.28174  1.0000
  I   I227      1.0  0.61639  0.74081  0.09740  1.0000
  I   I228      1.0  0.83321  0.67223  0.68436  1.0000
  I   I229      1.0  0.69340  0.18302  0.38844  1.0000
  I   I230      1.0  0.82157  0.30731  0.25243  1.0000
  I   I231      1.0  0.68537  0.29321  0.99599  1.0000
  I   I232      1.0  0.82014  0.31449  0.03924  1.0000
  I   I233      1.0  0.80475  0.25494  0.79354  1.0000
  I   I234      1.0  0.29407  0.77579  0.59611  1.0000
  I   I235      1.0  0.00433  0.40879  0.17697  1.0000
  I   I236      1.0  0.96725  0.67934  0.45437  1.0000
  I   I237      1.0  0.10626  0.57831  0.76224  1.0000
  I   I238      1.0  0.75251  0.84710  0.43130  1.0000
  I   I239      1.0  0.67625  0.00398  0.44998  1.0000
  I   I240      1.0  0.55045  0.23287  0.98180  1.0000
  I   I241      1.0  0.38728  0.85132  0.49331  1.0000
  I   I242      1.0  0.17936  0.96293  0.80089  1.0000
  I   I243      1.0  0.37182  0.84339  0.10499  1.0000
  I   I244      1.0  0.22066  0.01034  0.48714  1.0000
  I   I245      1.0  0.14521  0.38767  0.55104  1.0000
  I   I246      1.0  0.09171  0.24329  0.81009  1.0000
  I   I247      1.0  0.95417  0.68453  0.07023  1.0000
  I   I248      1.0  0.86167  0.04542  0.43174  1.0000
  I   I249      1.0  0.92673  0.70766  0.22636  1.0000
  I   I250      1.0  0.22809  0.75664  0.77783  1.0000
  I   I251      1.0  0.05654  0.68070  0.73258  1.0000
  I   I252      1.0  0.94249  0.91800  0.70375  1.0000
  I   I253      1.0  0.32584  0.17091  0.44186  1.0000
  I   I254      1.0  0.40186  0.14328  0.63501  1.0000
  I   I255      1.0  0.35381  0.01985  0.10221  1.0000
  I   I256      1.0  0.31573  0.48762  0.10792  1.0000
  I   I257      1.0  0.12031  0.71980  0.28664  1.0000
  I   I258      1.0  0.26545  0.45257  0.41639  1.0000
  I   I259      1.0  0.43613  0.66701  0.31495  1.0000
  I   I260      1.0  0.68549  0.71555  0.75001  1.0000
  I   I261      1.0  0.40515  0.54864  0.55592  1.0000
  I   I262      1.0  0.40524  0.75227  0.68398  1.0000
  I   I263      1.0  0.69763  0.82659  0.91780  1.0000
  I   I264      1.0  0.50173  0.68326  0.04017  1.0000
  I   I265      1.0  0.44915  0.31785  0.84935  1.0000
  I   I266      1.0  0.27107  0.32895  0.20574  1.0000
  I   I267      1.0  0.67155  0.31508  0.56833  1.0000
  I   I268      1.0  0.50540  0.35385  0.08636  1.0000
  I   I269      1.0  0.66514  0.56150  0.03190  1.0000
  I   I270      1.0  0.48478  0.60753  0.74667  1.0000
  I   I271      1.0  0.94309  0.58531  0.06747  1.0000
  I   I272      1.0  0.78135  0.45494  0.56901  1.0000
  I   I273      1.0  0.85629  0.55971  0.74444  1.0000
  I   I274      1.0  0.78543  0.90218  0.14465  1.0000
  I   I275      1.0  0.67366  0.65734  0.03832  1.0000
  I   I276      1.0  0.87469  0.60320  0.58078  1.0000
  I   I277      1.0  0.72412  0.23840  0.37671  1.0000
  I   I278      1.0  0.75965  0.29472  0.32370  1.0000
  I   I279      1.0  0.71756  0.20589  0.86454  1.0000
  I   I280      1.0  0.96500  0.28187  0.89228  1.0000
  I   I281      1.0  0.81131  0.27617  0.63134  1.0000
  I   I282      1.0  0.24415  0.86716  0.66463  1.0000
  I   I283      1.0  0.03949  0.40891  0.30610  1.0000
  I   I284      1.0  0.04166  0.59354  0.40329  1.0000
  I   I285      1.0  0.09021  0.52150  0.82139  1.0000
  I   I286      1.0  0.74239  0.86797  0.59609  1.0000
  I   I287      1.0  0.61497  0.06671  0.52039  1.0000
  I   I288      1.0  0.52082  0.25303  0.12625  1.0000
  I   I289      1.0  0.38463  0.90104  0.37062  1.0000
  I   I290      1.0  0.13496  0.93795  0.07378  1.0000
  I   I291      1.0  0.25412  0.94921  0.92508  1.0000
  I   I292      1.0  0.15907  0.01944  0.63064  1.0000
  I   I293      1.0  0.14980  0.32918  0.43956  1.0000
  I   I294      1.0  0.20518  0.19772  0.97258  1.0000
  I   I295      1.0  0.87712  0.77576  0.98551  1.0000
  I   I296      1.0  0.90227  0.08495  0.54463  1.0000
  I   I297      1.0  0.99434  0.80790  0.27092  1.0000
  I   I298      1.0  0.14431  0.78385  0.75694  1.0000
  I   I299      1.0  0.33383  0.78065  0.96969  1.0000
  I   I300      1.0  0.00009  0.85802  0.72069  1.0000
  I   I301      1.0  0.37763  0.10119  0.16780  1.0000
  I   I302      1.0  0.34492  0.25038  0.47881  1.0000
  I   I303      1.0  0.32349  0.14095  0.64972  1.0000
  I   I304      1.0  0.22925  0.40878  0.49211  1.0000
  I   I305      1.0  0.17926  0.56694  0.22394  1.0000
  I   I306      1.0  0.10246  0.71269  0.41902  1.0000
  I   I307      1.0  0.47564  0.58803  0.45448  1.0000
  I   I308      1.0  0.63458  0.67825  0.59330  1.0000
  I   I309      1.0  0.25663  0.59496  0.64842  1.0000
  I   I310      1.0  0.46173  0.70832  0.78515  1.0000
  I   I311      1.0  0.53363  0.86712  0.87693  1.0000
  I   I312      1.0  0.75373  0.85028  0.96899  1.0000
  I   I313      1.0  0.53493  0.43522  0.68496  1.0000
  I   I314      1.0  0.27436  0.38349  0.96551  1.0000
  I   I315      1.0  0.19343  0.38812  0.20034  1.0000
  I   I316      1.0  0.63402  0.51885  0.62397  1.0000
  I   I317      1.0  0.52809  0.44591  0.21603  1.0000
  I   I318      1.0  0.62004  0.47475  0.82436  1.0000
  I   I319      1.0  0.97862  0.47647  0.87640  1.0000
  I   I320      1.0  0.02496  0.56457  0.07997  1.0000
  I   I321      1.0  0.90338  0.39343  0.75830  1.0000
  I   I322      1.0  0.71788  0.05808  0.30213  1.0000
  I   I323      1.0  0.74759  0.70602  0.25634  1.0000
  I   I324      1.0  0.76152  0.69662  0.61007  1.0000
  I   I325      1.0  0.65147  0.14489  0.35715  1.0000
  I   I326      1.0  0.80284  0.24362  0.13999  1.0000
  I   I327      1.0  0.64384  0.28893  0.88193  1.0000
  I   I328      1.0  0.97622  0.27162  0.05209  1.0000
  I   I329      1.0  0.87150  0.18634  0.52136  1.0000
  I   I330      1.0  0.22342  0.90425  0.39391  1.0000
  I   I331      1.0  0.10291  0.54619  0.95290  1.0000
  I   I332      1.0  0.02547  0.33979  0.35237  1.0000
  I   I333      1.0  0.97333  0.58233  0.67238  1.0000
  I   I334      1.0  0.48862  0.19974  0.13316  1.0000
  I   I335      1.0  0.58376  0.94821  0.46685  1.0000
  I   I336      1.0  0.54940  0.14472  0.48117  1.0000
  I   I337      1.0  0.36852  0.93053  0.21940  1.0000
  I   I338      1.0  0.05104  0.01222  0.07894  1.0000
  I   I339      1.0  0.20640  0.03154  0.92758  1.0000
  I   I340      1.0  0.13920  0.09822  0.62002  1.0000
  I   I341      1.0  0.18145  0.30293  0.59337  1.0000
  I   I342      1.0  0.11842  0.27134  0.93188  1.0000
  I   I343      1.0  0.89393  0.82487  0.05303  1.0000
  I   I344      1.0  0.90776  0.11035  0.32881  1.0000
  I   I345      1.0  0.92662  0.81958  0.41571  1.0000
  I   I346      1.0  0.12524  0.84846  0.83275  1.0000
  I   I347      1.0  0.35517  0.70102  0.99361  1.0000
  I   I348      1.0  0.00393  0.78332  0.77892  1.0000
  I   I349      1.0  0.44267  0.04167  0.23603  1.0000
  I   I350      1.0  0.29346  0.26224  0.36041  1.0000
  I   I351      1.0  0.34544  0.17045  0.75519  1.0000
  I   I352      1.0  0.27450  0.48811  0.53042  1.0000
  I   I353      1.0  0.23578  0.54888  0.10244  1.0000
  I   I354      1.0  0.18495  0.66415  0.40048  1.0000
  I   I355      1.0  0.43199  0.67035  0.48818  1.0000
  I   I356      1.0  0.70421  0.65138  0.69265  1.0000
  I   I357      1.0  0.26917  0.65587  0.72669  1.0000
  I   I358      1.0  0.52010  0.72141  0.91345  1.0000
  I   I359      1.0  0.53438  0.87972  0.04533  1.0000
  I   I360      1.0  0.76517  0.78011  0.05797  1.0000
  I   I361      1.0  0.58704  0.47453  0.65078  1.0000
  I   I362      1.0  0.34274  0.38775  0.93384  1.0000
  I   I363      1.0  0.23990  0.44234  0.19378  1.0000
  I   I364      1.0  0.63497  0.58728  0.67509  1.0000
  I   I365      1.0  0.48752  0.44436  0.07092  1.0000
  I   I366      1.0  0.66022  0.49836  0.93292  1.0000
  I   I367      1.0  0.93546  0.44036  0.90735  1.0000
  I   I368      1.0  0.03212  0.49383  0.16470  1.0000
  I   I369      1.0  0.83369  0.40117  0.83473  1.0000
  I   I370      1.0  0.74342  0.06783  0.16357  1.0000
  I   I371      1.0  0.72130  0.65017  0.33479  1.0000
  I   I372      1.0  0.72999  0.66099  0.50395  1.0000
  I   I373      1.0  0.59973  0.23445  0.35559  1.0000
  I   I374      1.0  0.76945  0.18328  0.14449  1.0000
  I   I375      1.0  0.68136  0.31612  0.78571  1.0000
  I   I376      1.0  0.90772  0.34254  0.98830  1.0000
  I   I377      1.0  0.87001  0.19538  0.68224  1.0000
  I   I378      1.0  0.29934  0.80922  0.42398  1.0000
  I   I379      1.0  0.14230  0.59587  0.88117  1.0000
  I   I380      1.0  0.00976  0.33206  0.20234  1.0000
  I   I381      1.0  0.95110  0.66273  0.60110  1.0000
  I   I382      1.0  0.48594  0.12505  0.05959  1.0000
  I   I383      1.0  0.66361  0.87949  0.43411  1.0000
  I   I384      1.0  0.51007  0.13253  0.36116  1.0000
