data_image0
_chemical_formula_structural       Ti96I384
_chemical_formula_sum              "Ti96 I384"
_cell_length_a       57.082
_cell_length_b       57.7442
_cell_length_c       27.891
_cell_angle_alpha    88.7757
_cell_angle_beta     88.7757
_cell_angle_gamma    62.1586

_space_group_name_H-M_alt    "P 1"
_space_group_IT_number       1

loop_
  _space_group_symop_operation_xyz
  'x, y, z'

loop_
  _atom_site_type_symbol
  _atom_site_label
  _atom_site_symmetry_multiplicity
  _atom_site_fract_x
  _atom_site_fract_y
  _atom_site_fract_z
  _atom_site_occupancy
  Ti  Ti1       1.0  0.89004  0.69345  0.99070  1.0000
  Ti  Ti2       1.0  0.83407  0.96432  0.05071  1.0000
  Ti  Ti3       1.0  0.83807  0.73673  0.45825  1.0000
  Ti  Ti4       1.0  0.35730  0.16766  0.28999  1.0000
  Ti  Ti5       1.0  0.13404  0.94529  0.85504  1.0000
  Ti  Ti6       1.0  0.11075  0.09797  0.34352  1.0000
  Ti  Ti7       1.0  0.96348  0.78970  0.75066  1.0000
  Ti  Ti8       1.0  0.11551  0.93759  0.58928  1.0000
  Ti  Ti9       1.0  0.73546  0.13766  0.79255  1.0000
  Ti  Ti10      1.0  0.45583  0.98828  0.23871  1.0000
  Ti  Ti11      1.0  0.12898  0.57154  0.89047  1.0000
  Ti  Ti12      1.0  0.73395  0.84792  0.78451  1.0000
  Ti  Ti13      1.0  0.40333  0.25171  0.92771  1.0000
  Ti  Ti14      1.0  0.18204  0.32180  0.33947  1.0000
  Ti  Ti15      1.0  0.24827  0.06471  0.76851  1.0000
  Ti  Ti16      1.0  0.00712  0.87502  0.34307  1.0000
  Ti  Ti17      1.0  0.13679  0.66440  0.13418  1.0000
  Ti  Ti18      1.0  0.96036  0.37727  0.19011  1.0000
  Ti  Ti19      1.0  0.71397  0.68644  0.24186  1.0000
  Ti  Ti20      1.0  0.70220  0.80187  0.39602  1.0000
  Ti  Ti21      1.0  0.35601  0.38611  0.15206  1.0000
  Ti  Ti22      1.0  0.50676  0.90392  0.55623  1.0000
  Ti  Ti23      1.0  0.57193  0.81801  0.82109  1.0000
  Ti  Ti24      1.0  0.57161  0.95857  0.59769  1.0000
  Ti  Ti25      1.0  0.24030  0.20164  0.57749  1.0000
  Ti  Ti26      1.0  0.19658  0.36582  0.82739  1.0000
  Ti  Ti27      1.0  0.29162  0.56230  0.46992  1.0000
  Ti  Ti28      1.0  0.50965  0.75621  0.49399  1.0000
  Ti  Ti29      1.0  0.77036  0.42232  0.44302  1.0000
  Ti  Ti30      1.0  0.83913  0.48074  0.59823  1.0000
  Ti  Ti31      1.0  0.69002  0.47485  0.10100  1.0000
  Ti  Ti32      1.0  0.97088  0.06813  0.33670  1.0000
  Ti  Ti33      1.0  0.96725  0.19277  0.63354  1.0000
  Ti  Ti34      1.0  0.93955  0.76955  0.25116  1.0000
  Ti  Ti35      1.0  0.70160  0.64477  0.90587  1.0000
  Ti  Ti36      1.0  0.98049  0.60080  0.69516  1.0000
  Ti  Ti37      1.0  0.82290  0.26417  0.27471  1.0000
  Ti  Ti38      1.0  0.61198  0.29150  0.39943  1.0000
  Ti  Ti39      1.0  0.32964  0.94709  0.47696  1.0000
  Ti  Ti40      1.0  0.36257  0.71896  0.99285  1.0000
  Ti  Ti41      1.0  0.68785  0.38901  0.65583  1.0000
  Ti  Ti42      1.0  0.48465  0.75590  0.12721  1.0000
  Ti  Ti43      1.0  0.92073  0.99305  0.87042  1.0000
  Ti  Ti44      1.0  0.93766  0.55071  0.41482  1.0000
  Ti  Ti45      1.0  0.05485  0.45744  0.97336  1.0000
  Ti  Ti46      1.0  0.60853  0.10609  0.50547  1.0000
  Ti  Ti47      1.0  0.36750  0.32272  0.47585  1.0000
  Ti  Ti48      1.0  0.52936  0.44558  0.13295  1.0000
  Ti  Ti49      1.0  0.87548  0.66905  0.88624  1.0000
  Ti  Ti50      1.0  0.85172  0.98455  0.15958  1.0000
  Ti  Ti51      1.0  0.82614  0.93183  0.92938  1.0000
  Ti  Ti52      1.0  0.30376  0.17865  0.24669  1.0000
  Ti  Ti53      1.0  0.14501  0.98958  0.95640  1.0000
  Ti  Ti54      1.0  0.14677  0.07485  0.21054  1.0000
  Ti  Ti55      1.0  0.96199  0.77044  0.88625  1.0000
  Ti  Ti56      1.0  0.13167  0.87223  0.58433  1.0000
  Ti  Ti57      1.0  0.71489  0.12950  0.92256  1.0000
  Ti  Ti58      1.0  0.09509  0.89827  0.88691  1.0000
  Ti  Ti59      1.0  0.47067  0.90901  0.20050  1.0000
  Ti  Ti60      1.0  0.72261  0.91902  0.71456  1.0000
  Ti  Ti61      1.0  0.27719  0.03372  0.87356  1.0000
  Ti  Ti62      1.0  0.40454  0.20002  0.03842  1.0000
  Ti  Ti63      1.0  0.21483  0.36108  0.34408  1.0000
  Ti  Ti64      1.0  0.94092  0.34440  0.22949  1.0000
  Ti  Ti65      1.0  0.03063  0.90284  0.30327  1.0000
  Ti  Ti66      1.0  0.27676  0.70851  0.67521  1.0000
  Ti  Ti67      1.0  0.75597  0.69473  0.10614  1.0000
  Ti  Ti68      1.0  0.72275  0.86117  0.45728  1.0000
  Ti  Ti69      1.0  0.37132  0.42878  0.12876  1.0000
  Ti  Ti70      1.0  0.56581  0.91378  0.49804  1.0000
  Ti  Ti71      1.0  0.51852  0.88058  0.86855  1.0000
  Ti  Ti72      1.0  0.52248  0.79421  0.78738  1.0000
  Ti  Ti73      1.0  0.28874  0.50908  0.55318  1.0000
  Ti  Ti74      1.0  0.31082  0.19400  0.65855  1.0000
  Ti  Ti75      1.0  0.15058  0.36007  0.77234  1.0000
  Ti  Ti76      1.0  0.81399  0.55523  0.59285  1.0000
  Ti  Ti77      1.0  0.53693  0.68762  0.45689  1.0000
  Ti  Ti78      1.0  0.74591  0.49454  0.52852  1.0000
  Ti  Ti79      1.0  0.03764  0.14817  0.65708  1.0000
  Ti  Ti80      1.0  0.75039  0.40539  0.07718  1.0000
  Ti  Ti81      1.0  0.91538  0.07408  0.28273  1.0000
  Ti  Ti82      1.0  0.99733  0.75898  0.21774  1.0000
  Ti  Ti83      1.0  0.67917  0.61108  0.88346  1.0000
  Ti  Ti84      1.0  0.90784  0.63223  0.62828  1.0000
  Ti  Ti85      1.0  0.80360  0.25848  0.12655  1.0000
  Ti  Ti86      1.0  0.53982  0.27207  0.41545  1.0000
  Ti  Ti87      1.0  0.29466  0.98699  0.37796  1.0000
  Ti  Ti88      1.0  0.29668  0.79700  0.94367  1.0000
  Ti  Ti89      1.0  0.66027  0.43722  0.75081  1.0000
  Ti  Ti90      1.0  0.52316  0.70460  0.03141  1.0000
  Ti  Ti91      1.0  0.00730  0.43244  0.88683  1.0000
  Ti  Ti92      1.0  0.84917  0.13349  0.55464  1.0000
  Ti  Ti93      1.0  0.00378  0.52730  0.35217  1.0000
  Ti  Ti94      1.0  0.53175  0.40980  0.01733  1.0000
  Ti  Ti95      1.0  0.57284  0.08993  0.63773  1.0000
  Ti  Ti96      1.0  0.40361  0.28370  0.57166  1.0000
  I   I1        1.0  0.88151  0.95215  0.22809  1.0000
  I   I2        1.0  0.85071  0.96575  0.95670  1.0000
  I   I3        1.0  0.88370  0.69821  0.08557  1.0000
  I   I4        1.0  0.18235  0.92551  0.81991  1.0000
  I   I5        1.0  0.15413  0.07831  0.39063  1.0000
  I   I6        1.0  0.18263  0.03088  0.17568  1.0000
  I   I7        1.0  0.14937  0.82802  0.53337  1.0000
  I   I8        1.0  0.10199  0.87522  0.66235  1.0000
  I   I9        1.0  0.77117  0.09104  0.77396  1.0000
  I   I10       1.0  0.41165  0.99707  0.18992  1.0000
  I   I11       1.0  0.12602  0.61792  0.89586  1.0000
  I   I12       1.0  0.14330  0.89791  0.82984  1.0000
  I   I13       1.0  0.40404  0.24762  0.03117  1.0000
  I   I14       1.0  0.19615  0.41453  0.37399  1.0000
  I   I15       1.0  0.24038  0.04493  0.69161  1.0000
  I   I16       1.0  0.02367  0.85341  0.26056  1.0000
  I   I17       1.0  0.22889  0.74309  0.68952  1.0000
  I   I18       1.0  0.92677  0.36219  0.14258  1.0000
  I   I19       1.0  0.75680  0.84907  0.52692  1.0000
  I   I20       1.0  0.39771  0.38758  0.19998  1.0000
  I   I21       1.0  0.33882  0.43211  0.20837  1.0000
  I   I22       1.0  0.49795  0.91445  0.80053  1.0000
  I   I23       1.0  0.57977  0.80210  0.72932  1.0000
  I   I24       1.0  0.55418  0.96726  0.49811  1.0000
  I   I25       1.0  0.29104  0.20269  0.56394  1.0000
  I   I26       1.0  0.20349  0.32228  0.77860  1.0000
  I   I27       1.0  0.26761  0.61590  0.48881  1.0000
  I   I28       1.0  0.55924  0.75071  0.49410  1.0000
  I   I29       1.0  0.73419  0.44701  0.52773  1.0000
  I   I30       1.0  0.81552  0.51876  0.67042  1.0000
  I   I31       1.0  0.74956  0.36976  0.02832  1.0000
  I   I32       1.0  0.86917  0.09658  0.33302  1.0000
  I   I33       1.0  0.99290  0.16928  0.72753  1.0000
  I   I34       1.0  0.69152  0.69197  0.91117  1.0000
  I   I35       1.0  0.94662  0.64834  0.63466  1.0000
  I   I36       1.0  0.01479  0.75549  0.13343  1.0000
  I   I37       1.0  0.77502  0.27952  0.29450  1.0000
  I   I38       1.0  0.29350  0.93740  0.42811  1.0000
  I   I39       1.0  0.82238  0.27724  0.05650  1.0000
  I   I40       1.0  0.61174  0.47880  0.73981  1.0000
  I   I41       1.0  0.53760  0.73140  0.97348  1.0000
  I   I42       1.0  0.34281  0.75093  0.89588  1.0000
  I   I43       1.0  0.92757  0.02074  0.80551  1.0000
  I   I44       1.0  0.96244  0.57447  0.43162  1.0000
  I   I45       1.0  0.02381  0.50901  0.00136  1.0000
  I   I46       1.0  0.58268  0.15568  0.48664  1.0000
  I   I47       1.0  0.32399  0.36641  0.46238  1.0000
  I   I48       1.0  0.49322  0.46024  0.03816  1.0000
  I   I49       1.0  0.89276  0.73829  0.98634  1.0000
  I   I50       1.0  0.80797  0.02277  0.07303  1.0000
  I   I51       1.0  0.86735  0.91443  0.86961  1.0000
  I   I52       1.0  0.34303  0.13016  0.27650  1.0000
  I   I53       1.0  0.14261  0.99948  0.86220  1.0000
  I   I54       1.0  0.13938  0.09087  0.11913  1.0000
  I   I55       1.0  0.94848  0.83785  0.72277  1.0000
  I   I56       1.0  0.08496  0.91231  0.54515  1.0000
  I   I57       1.0  0.70601  0.10866  0.82811  1.0000
  I   I58       1.0  0.45310  0.94273  0.28927  1.0000
  I   I59       1.0  0.45799  0.00658  0.32282  1.0000
  I   I60       1.0  0.69357  0.89226  0.74460  1.0000
  I   I61       1.0  0.45144  0.16084  0.00996  1.0000
  I   I62       1.0  0.36653  0.18234  0.03920  1.0000
  I   I63       1.0  0.13014  0.34913  0.34535  1.0000
  I   I64       1.0  0.96633  0.86547  0.35165  1.0000
  I   I65       1.0  0.04962  0.93397  0.31882  1.0000
  I   I66       1.0  0.30680  0.70555  0.74614  1.0000
  I   I67       1.0  0.79299  0.70921  0.08830  1.0000
  I   I68       1.0  0.70435  0.78493  0.31036  1.0000
  I   I69       1.0  0.40216  0.39647  0.06276  1.0000
  I   I70       1.0  0.55691  0.87367  0.50508  1.0000
  I   I71       1.0  0.57412  0.86812  0.81585  1.0000
  I   I72       1.0  0.52166  0.75388  0.82672  1.0000
  I   I73       1.0  0.32644  0.56964  0.41435  1.0000
  I   I74       1.0  0.16453  0.41483  0.85719  1.0000
  I   I75       1.0  0.13879  0.32919  0.71723  1.0000
  I   I76       1.0  0.48615  0.79496  0.43012  1.0000
  I   I77       1.0  0.54126  0.63881  0.48778  1.0000
  I   I78       1.0  0.77699  0.51687  0.53005  1.0000
  I   I79       1.0  0.06259  0.09967  0.70010  1.0000
  I   I80       1.0  0.74436  0.46411  0.13530  1.0000
  I   I81       1.0  0.99898  0.09145  0.30304  1.0000
  I   I82       1.0  0.98276  0.80968  0.20815  1.0000
  I   I83       1.0  0.69349  0.64323  0.81286  1.0000
  I   I84       1.0  0.90086  0.63674  0.53277  1.0000
  I   I85       1.0  0.79072  0.23170  0.07005  1.0000
  I   I86       1.0  0.50465  0.28329  0.34775  1.0000
  I   I87       1.0  0.36158  0.95298  0.54920  1.0000
  I   I88       1.0  0.40152  0.68835  0.93072  1.0000
  I   I89       1.0  0.70271  0.38315  0.76486  1.0000
  I   I90       1.0  0.44159  0.79840  0.15897  1.0000
  I   I91       1.0  0.99626  0.44677  0.79535  1.0000
  I   I92       1.0  0.83494  0.18301  0.54742  1.0000
  I   I93       1.0  0.01323  0.56659  0.32486  1.0000
  I   I94       1.0  0.55703  0.40289  0.93415  1.0000
  I   I95       1.0  0.54233  0.06492  0.64077  1.0000
  I   I96       1.0  0.40004  0.34170  0.51011  1.0000
  I   I97       1.0  0.87301  0.69776  0.41179  1.0000
  I   I98       1.0  0.84483  0.71754  0.93631  1.0000
  I   I99       1.0  0.78631  0.97588  0.99691  1.0000
  I   I100      1.0  0.34034  0.18911  0.38123  1.0000
  I   I101      1.0  0.34673  0.16901  0.18837  1.0000
  I   I102      1.0  0.14758  0.93162  0.95333  1.0000
  I   I103      1.0  0.98586  0.72932  0.94445  1.0000
  I   I104      1.0  0.00675  0.76181  0.70203  1.0000
  I   I105      1.0  0.71761  0.16517  0.97983  1.0000
  I   I106      1.0  0.77620  0.80095  0.77044  1.0000
  I   I107      1.0  0.49977  0.94450  0.21262  1.0000
  I   I108      1.0  0.67814  0.96333  0.72458  1.0000
  I   I109      1.0  0.23965  0.03817  0.93020  1.0000
  I   I110      1.0  0.38619  0.20956  0.94840  1.0000
  I   I111      1.0  0.18772  0.35445  0.42268  1.0000
  I   I112      1.0  0.96723  0.38660  0.09130  1.0000
  I   I113      1.0  0.97093  0.92302  0.28422  1.0000
  I   I114      1.0  0.12800  0.62994  0.18207  1.0000
  I   I115      1.0  0.71592  0.68359  0.14135  1.0000
  I   I116      1.0  0.77808  0.65467  0.05082  1.0000
  I   I117      1.0  0.74289  0.89275  0.41786  1.0000
  I   I118      1.0  0.57928  0.91178  0.40676  1.0000
  I   I119      1.0  0.48494  0.87529  0.51971  1.0000
  I   I120      1.0  0.51796  0.84404  0.79401  1.0000
  I   I121      1.0  0.26123  0.56611  0.40118  1.0000
  I   I122      1.0  0.29276  0.21086  0.74661  1.0000
  I   I123      1.0  0.21993  0.33953  0.90183  1.0000
  I   I124      1.0  0.86024  0.51706  0.57651  1.0000
  I   I125      1.0  0.53785  0.70499  0.37393  1.0000
  I   I126      1.0  0.78276  0.46066  0.46628  1.0000
  I   I127      1.0  0.95820  0.20079  0.54485  1.0000
  I   I128      1.0  0.69457  0.51671  0.07669  1.0000
  I   I129      1.0  0.96699  0.04466  0.25165  1.0000
  I   I130      1.0  0.01690  0.58367  0.62471  1.0000
  I   I131      1.0  0.91422  0.75062  0.29268  1.0000
  I   I132      1.0  0.67406  0.58222  0.95552  1.0000
  I   I133      1.0  0.29957  0.99707  0.48151  1.0000
  I   I134      1.0  0.56322  0.29703  0.35005  1.0000
  I   I135      1.0  0.65334  0.27293  0.45847  1.0000
  I   I136      1.0  0.50908  0.78228  0.11252  1.0000
  I   I137      1.0  0.29363  0.82776  0.87888  1.0000
  I   I138      1.0  0.73763  0.35845  0.64270  1.0000
  I   I139      1.0  0.03900  0.46336  0.88114  1.0000
  I   I140      1.0  0.81082  0.13412  0.50603  1.0000
  I   I141      1.0  0.04291  0.49963  0.40176  1.0000
  I   I142      1.0  0.56766  0.42090  0.19113  1.0000
  I   I143      1.0  0.65218  0.10426  0.48411  1.0000
  I   I144      1.0  0.38603  0.32217  0.63319  1.0000
  I   I145      1.0  0.87465  0.65454  0.99015  1.0000
  I   I146      1.0  0.88890  0.96000  0.08713  1.0000
  I   I147      1.0  0.86407  0.76072  0.47208  1.0000
  I   I148      1.0  0.27753  0.16864  0.17837  1.0000
  I   I149      1.0  0.14775  0.02306  0.01621  1.0000
  I   I150      1.0  0.08312  0.07354  0.37465  1.0000
  I   I151      1.0  0.93964  0.80514  0.95787  1.0000
  I   I152      1.0  0.07478  0.98120  0.56804  1.0000
  I   I153      1.0  0.75643  0.13850  0.87082  1.0000
  I   I154      1.0  0.06364  0.89101  0.82839  1.0000
  I   I155      1.0  0.11178  0.57460  0.97973  1.0000
  I   I156      1.0  0.74399  0.85234  0.86806  1.0000
  I   I157      1.0  0.31187  0.00952  0.93801  1.0000
  I   I158      1.0  0.18554  0.36532  0.27107  1.0000
  I   I159      1.0  0.19994  0.09250  0.78549  1.0000
  I   I160      1.0  0.00117  0.32767  0.20413  1.0000
  I   I161      1.0  0.09223  0.69340  0.08493  1.0000
  I   I162      1.0  0.91752  0.41758  0.23326  1.0000
  I   I163      1.0  0.72949  0.69415  0.32352  1.0000
  I   I164      1.0  0.65336  0.83606  0.39256  1.0000
  I   I165      1.0  0.39267  0.33854  0.12573  1.0000
  I   I166      1.0  0.50660  0.93166  0.47588  1.0000
  I   I167      1.0  0.62221  0.79565  0.84831  1.0000
  I   I168      1.0  0.59851  0.94065  0.67840  1.0000
  I   I169      1.0  0.24311  0.19952  0.48059  1.0000
  I   I170      1.0  0.26153  0.18914  0.67036  1.0000
  I   I171      1.0  0.32351  0.51130  0.47614  1.0000
  I   I172      1.0  0.82998  0.57844  0.66075  1.0000
  I   I173      1.0  0.78899  0.37705  0.49216  1.0000
  I   I174      1.0  0.80976  0.45827  0.60639  1.0000
  I   I175      1.0  0.73387  0.44738  0.02947  1.0000
  I   I176      1.0  0.92954  0.11418  0.29816  1.0000
  I   I177      1.0  0.95529  0.15166  0.65283  1.0000
  I   I178      1.0  0.93792  0.76786  0.15578  1.0000
  I   I179      1.0  0.72420  0.62068  0.98739  1.0000
  I   I180      1.0  0.99058  0.61899  0.77663  1.0000
  I   I181      1.0  0.81460  0.21881  0.19473  1.0000
  I   I182      1.0  0.51416  0.31189  0.47884  1.0000
  I   I183      1.0  0.34060  0.90128  0.51302  1.0000
  I   I184      1.0  0.39654  0.70973  0.05367  1.0000
  I   I185      1.0  0.67674  0.35607  0.61186  1.0000
  I   I186      1.0  0.50151  0.67257  0.03990  1.0000
  I   I187      1.0  0.89740  0.10710  0.52292  1.0000
  I   I188      1.0  0.89755  0.58032  0.36547  1.0000
  I   I189      1.0  0.07059  0.43156  0.05429  1.0000
  I   I190      1.0  0.54429  0.11423  0.55704  1.0000
  I   I191      1.0  0.41298  0.26662  0.47357  1.0000
  I   I192      1.0  0.50961  0.41214  0.13515  1.0000
  I   I193      1.0  0.88527  0.68547  0.80430  1.0000
  I   I194      1.0  0.82237  0.94994  0.13623  1.0000
  I   I195      1.0  0.78908  0.76607  0.43983  1.0000
  I   I196      1.0  0.35152  0.21410  0.26577  1.0000
  I   I197      1.0  0.06900  0.95295  0.85948  1.0000
  I   I198      1.0  0.09745  0.12526  0.26094  1.0000
  I   I199      1.0  0.93250  0.78512  0.69869  1.0000
  I   I200      1.0  0.17999  0.84534  0.62813  1.0000
  I   I201      1.0  0.74723  0.16580  0.73550  1.0000
  I   I202      1.0  0.42894  0.90085  0.20207  1.0000
  I   I203      1.0  0.09512  0.58198  0.82249  1.0000
  I   I204      1.0  0.76646  0.86736  0.73201  1.0000
  I   I205      1.0  0.45388  0.23503  0.90744  1.0000
  I   I206      1.0  0.23702  0.30932  0.36070  1.0000
  I   I207      1.0  0.26305  0.00843  0.80421  1.0000
  I   I208      1.0  0.03088  0.83513  0.41062  1.0000
  I   I209      1.0  0.14434  0.69918  0.17533  1.0000
  I   I210      1.0  0.98556  0.39862  0.22986  1.0000
  I   I211      1.0  0.76820  0.67764  0.20243  1.0000
  I   I212      1.0  0.70947  0.75513  0.43072  1.0000
  I   I213      1.0  0.41037  0.43818  0.17255  1.0000
  I   I214      1.0  0.47194  0.94617  0.59881  1.0000
  I   I215      1.0  0.55133  0.83784  0.91335  1.0000
  I   I216      1.0  0.61316  0.96954  0.57830  1.0000
  I   I217      1.0  0.20439  0.18532  0.57726  1.0000
  I   I218      1.0  0.23711  0.37499  0.80997  1.0000
  I   I219      1.0  0.23713  0.52685  0.54602  1.0000
  I   I220      1.0  0.54257  0.70365  0.54401  1.0000
  I   I221      1.0  0.72726  0.43462  0.39236  1.0000
  I   I222      1.0  0.86138  0.46297  0.51471  1.0000
  I   I223      1.0  0.65205  0.47315  0.04742  1.0000
  I   I224      1.0  0.01025  0.02161  0.37281  1.0000
  I   I225      1.0  0.92707  0.23654  0.66599  1.0000
  I   I226      1.0  0.97114  0.77042  0.31820  1.0000
  I   I227      1.0  0.75034  0.62712  0.86776  1.0000
  I   I228      1.0  0.93793  0.57985  0.61743  1.0000
  I   I229      1.0  0.86388  0.21760  0.30107  1.0000
  I   I230      1.0  0.61098  0.33652  0.38888  1.0000
  I   I231      1.0  0.24869  0.02557  0.38935  1.0000
  I   I232      1.0  0.33614  0.69522  0.02945  1.0000
  I   I233      1.0  0.63910  0.40524  0.71604  1.0000
  I   I234      1.0  0.56829  0.65989  0.01770  1.0000
  I   I235      1.0  0.87573  0.01952  0.91297  1.0000
  I   I236      1.0  0.97826  0.49571  0.40335  1.0000
  I   I237      1.0  0.00496  0.44699  0.98234  1.0000
  I   I238      1.0  0.59407  0.07962  0.45147  1.0000
  I   I239      1.0  0.37058  0.31040  0.38227  1.0000
  I   I240      1.0  0.49786  0.49625  0.15186  1.0000
  I   I241      1.0  0.93997  0.66253  0.99063  1.0000
  I   I242      1.0  0.86008  0.91195  0.01757  1.0000
  I   I243      1.0  0.82608  0.71908  0.53731  1.0000
  I   I244      1.0  0.40810  0.14022  0.28982  1.0000
  I   I245      1.0  0.09550  0.00308  0.96596  1.0000
  I   I246      1.0  0.08118  0.14070  0.39333  1.0000
  I   I247      1.0  0.98457  0.73795  0.80583  1.0000
  I   I248      1.0  0.14665  0.95825  0.57256  1.0000
  I   I249      1.0  0.68428  0.17407  0.82833  1.0000
  I   I250      1.0  0.47471  0.01831  0.19527  1.0000
  I   I251      1.0  0.17626  0.54484  0.85496  1.0000
  I   I252      1.0  0.70476  0.82074  0.76778  1.0000
  I   I253      1.0  0.39220  0.29981  0.94470  1.0000
  I   I254      1.0  0.19991  0.29918  0.25882  1.0000
  I   I255      1.0  0.26762  0.08267  0.86780  1.0000
  I   I256      1.0  0.06755  0.86056  0.34803  1.0000
  I   I257      1.0  0.17343  0.63486  0.07112  1.0000
  I   I258      1.0  0.96037  0.29503  0.22248  1.0000
  I   I259      1.0  0.70207  0.65150  0.26481  1.0000
  I   I260      1.0  0.70426  0.82828  0.48373  1.0000
  I   I261      1.0  0.32100  0.36939  0.17783  1.0000
  I   I262      1.0  0.52253  0.87758  0.63137  1.0000
  I   I263      1.0  0.56528  0.77586  0.85468  1.0000
  I   I264      1.0  0.53120  0.99663  0.63134  1.0000
  I   I265      1.0  0.21260  0.24744  0.61418  1.0000
  I   I266      1.0  0.14889  0.35006  0.87133  1.0000
  I   I267      1.0  0.28238  0.56108  0.57211  1.0000
  I   I268      1.0  0.48104  0.72911  0.46609  1.0000
  I   I269      1.0  0.81586  0.40057  0.39062  1.0000
  I   I270      1.0  0.87729  0.45287  0.65850  1.0000
  I   I271      1.0  0.66690  0.49333  0.18113  1.0000
  I   I272      1.0  0.96934  0.08209  0.42794  1.0000
  I   I273      1.0  0.00358  0.21043  0.63601  1.0000
  I   I274      1.0  0.90555  0.82224  0.25033  1.0000
  I   I275      1.0  0.73068  0.57683  0.86400  1.0000
  I   I276      1.0  0.99794  0.55434  0.72669  1.0000
  I   I277      1.0  0.82761  0.28459  0.19176  1.0000
  I   I278      1.0  0.64267  0.26614  0.32957  1.0000
  I   I279      1.0  0.31744  0.01289  0.33530  1.0000
  I   I280      1.0  0.26064  0.78130  0.94224  1.0000
  I   I281      1.0  0.69506  0.45136  0.72979  1.0000
  I   I282      1.0  0.49384  0.73758  0.21711  1.0000
  I   I283      1.0  0.96360  0.98478  0.92987  1.0000
  I   I284      1.0  0.91605  0.55420  0.49713  1.0000
  I   I285      1.0  0.10093  0.45461  0.95575  1.0000
  I   I286      1.0  0.60570  0.11319  0.61272  1.0000
  I   I287      1.0  0.45404  0.26948  0.57458  1.0000
  I   I288      1.0  0.56401  0.44488  0.06687  1.0000
  I   I289      1.0  0.89228  0.61960  0.88132  1.0000
  I   I290      1.0  0.86424  0.02049  0.15661  1.0000
  I   I291      1.0  0.79081  0.96347  0.86202  1.0000
  I   I292      1.0  0.27551  0.23386  0.25478  1.0000
  I   I293      1.0  0.19927  0.96340  0.95145  1.0000
  I   I294      1.0  0.18227  0.09197  0.21645  1.0000
  I   I295      1.0  0.92288  0.80362  0.82795  1.0000
  I   I296      1.0  0.13737  0.91970  0.67206  1.0000
  I   I297      1.0  0.74701  0.08645  0.97147  1.0000
  I   I298      1.0  0.06591  0.90264  0.95940  1.0000
  I   I299      1.0  0.47439  0.91823  0.10745  1.0000
  I   I300      1.0  0.74725  0.93832  0.75901  1.0000
  I   I301      1.0  0.25976  0.10335  0.72750  1.0000
  I   I302      1.0  0.38154  0.26471  0.84070  1.0000
  I   I303      1.0  0.18587  0.28342  0.38660  1.0000
  I   I304      1.0  0.89890  0.34621  0.28852  1.0000
  I   I305      1.0  0.03758  0.90529  0.20923  1.0000
  I   I306      1.0  0.30127  0.72005  0.60754  1.0000
  I   I307      1.0  0.66876  0.72947  0.24768  1.0000
  I   I308      1.0  0.72029  0.83910  0.36514  1.0000
  I   I309      1.0  0.34510  0.47406  0.08231  1.0000
  I   I310      1.0  0.55436  0.92279  0.59489  1.0000
  I   I311      1.0  0.47607  0.88546  0.91370  1.0000
  I   I312      1.0  0.53824  0.76615  0.70925  1.0000
  I   I313      1.0  0.30520  0.49326  0.63476  1.0000
  I   I314      1.0  0.34717  0.20876  0.64870  1.0000
  I   I315      1.0  0.17361  0.38590  0.72656  1.0000
  I   I316      1.0  0.75908  0.58276  0.60141  1.0000
  I   I317      1.0  0.59126  0.66298  0.45436  1.0000
  I   I318      1.0  0.71846  0.50826  0.60957  1.0000
  I   I319      1.0  0.02664  0.13397  0.57914  1.0000
  I   I320      1.0  0.72255  0.40224  0.15476  1.0000
  I   I321      1.0  0.93629  0.03943  0.36087  1.0000
  I   I322      1.0  0.04756  0.73383  0.24252  1.0000
  I   I323      1.0  0.65636  0.59548  0.82738  1.0000
  I   I324      1.0  0.86257  0.66058  0.66493  1.0000
  I   I325      1.0  0.75648  0.29982  0.13496  1.0000
  I   I326      1.0  0.58893  0.26423  0.45277  1.0000
  I   I327      1.0  0.28692  0.96938  0.29545  1.0000
  I   I328      1.0  0.27462  0.82830  0.01498  1.0000
  I   I329      1.0  0.67469  0.43131  0.60841  1.0000
  I   I330      1.0  0.53876  0.70974  0.12028  1.0000
  I   I331      1.0  0.96628  0.42771  0.90748  1.0000
  I   I332      1.0  0.92173  0.95048  0.84370  1.0000
  I   I333      1.0  0.95630  0.55425  0.30820  1.0000
  I   I334      1.0  0.57701  0.37715  0.06157  1.0000
  I   I335      1.0  0.57848  0.08098  0.72962  1.0000
  I   I336      1.0  0.34837  0.30038  0.53735  1.0000
  I   I337      1.0  0.82858  0.67453  0.86935  1.0000
  I   I338      1.0  0.80965  0.01121  0.20874  1.0000
  I   I339      1.0  0.79969  0.90463  0.94330  1.0000
  I   I340      1.0  0.27623  0.18157  0.32614  1.0000
  I   I341      1.0  0.11154  0.97332  0.78577  1.0000
  I   I342      1.0  0.13743  0.04781  0.28266  1.0000
  I   I343      1.0  0.99480  0.78904  0.84527  1.0000
  I   I344      1.0  0.15024  0.89570  0.52601  1.0000
  I   I345      1.0  0.67090  0.13285  0.93417  1.0000
  I   I346      1.0  0.13194  0.84678  0.87733  1.0000
  I   I347      1.0  0.50767  0.86142  0.21596  1.0000
  I   I348      1.0  0.73391  0.91038  0.62299  1.0000
  I   I349      1.0  0.31033  0.02395  0.79304  1.0000
  I   I350      1.0  0.40886  0.20268  0.13260  1.0000
  I   I351      1.0  0.25044  0.36581  0.29366  1.0000
  I   I352      1.0  0.95610  0.36589  0.30730  1.0000
  I   I353      1.0  0.99709  0.91611  0.39647  1.0000
  I   I354      1.0  0.28296  0.66072  0.67694  1.0000
  I   I355      1.0  0.72649  0.73738  0.05513  1.0000
  I   I356      1.0  0.68093  0.90176  0.47676  1.0000
  I   I357      1.0  0.33489  0.40866  0.07358  1.0000
  I   I358      1.0  0.61812  0.89368  0.52880  1.0000
  I   I359      1.0  0.53613  0.90580  0.92738  1.0000
  I   I360      1.0  0.47548  0.81766  0.75893  1.0000
  I   I361      1.0  0.29787  0.46190  0.52624  1.0000
  I   I362      1.0  0.33544  0.14369  0.65333  1.0000
  I   I363      1.0  0.10497  0.40164  0.75272  1.0000
  I   I364      1.0  0.81162  0.58847  0.52468  1.0000
  I   I365      1.0  0.47872  0.78445  0.56560  1.0000
  I   I366      1.0  0.71519  0.52962  0.47510  1.0000
  I   I367      1.0  0.07638  0.15561  0.62490  1.0000
  I   I368      1.0  0.79923  0.38712  0.10753  1.0000
  I   I369      1.0  0.89450  0.07132  0.20412  1.0000
  I   I370      1.0  0.98422  0.71871  0.24196  1.0000
  I   I371      1.0  0.64296  0.65792  0.92018  1.0000
  I   I372      1.0  0.92892  0.61582  0.72194  1.0000
  I   I373      1.0  0.84274  0.28912  0.32332  1.0000
  I   I374      1.0  0.54355  0.22875  0.44538  1.0000
  I   I375      1.0  0.35640  0.93762  0.38989  1.0000
  I   I376      1.0  0.32670  0.76540  0.02948  1.0000
  I   I377      1.0  0.65244  0.44895  0.83976  1.0000
  I   I378      1.0  0.47226  0.74834  0.03182  1.0000
  I   I379      1.0  0.04848  0.38702  0.89359  1.0000
  I   I380      1.0  0.85435  0.11679  0.64073  1.0000
  I   I381      1.0  0.01326  0.50015  0.26435  1.0000
  I   I382      1.0  0.50587  0.38099  0.02316  1.0000
  I   I383      1.0  0.61803  0.04828  0.59347  1.0000
  I   I384      1.0  0.41147  0.24118  0.61761  1.0000
