data_image0
_chemical_formula_structural       Ti96I384
_chemical_formula_sum              "Ti96 I384"
_cell_length_a       59.8584
_cell_length_b       60.1276
_cell_length_c       29.1399
_cell_angle_alpha    88.7757
_cell_angle_beta     88.7757
_cell_angle_gamma    62.1586

_space_group_name_H-M_alt    "P 1"
_space_group_IT_number       1

loop_
  _space_group_symop_operation_xyz
  'x, y, z'

loop_
  _atom_site_type_symbol
  _atom_site_label
  _atom_site_symmetry_multiplicity
  _atom_site_fract_x
  _atom_site_fract_y
  _atom_site_fract_z
  _atom_site_occupancy
  Ti  Ti1       1.0  0.90758  0.87841  0.69974  1.0000
  Ti  Ti2       1.0  0.72938  0.06224  0.72435  1.0000
  Ti  Ti3       1.0  0.79134  0.83941  0.88703  1.0000
  Ti  Ti4       1.0  0.39367  0.51307  0.41081  1.0000
  Ti  Ti5       1.0  0.04331  0.75920  0.21302  1.0000
  Ti  Ti6       1.0  0.40060  0.99702  0.17174  1.0000
  Ti  Ti7       1.0  0.11585  0.87089  0.04255  1.0000
  Ti  Ti8       1.0  0.24215  0.58749  0.16642  1.0000
  Ti  Ti9       1.0  0.80229  0.18110  0.37483  1.0000
  Ti  Ti10      1.0  0.77797  0.99879  0.37019  1.0000
  Ti  Ti11      1.0  0.09098  0.64803  0.91575  1.0000
  Ti  Ti12      1.0  0.34169  0.71949  0.27975  1.0000
  Ti  Ti13      1.0  0.37128  0.25850  0.52279  1.0000
  Ti  Ti14      1.0  0.15250  0.21389  0.08253  1.0000
  Ti  Ti15      1.0  0.35278  0.83521  0.00221  1.0000
  Ti  Ti16      1.0  0.87728  0.28327  0.65252  1.0000
  Ti  Ti17      1.0  0.14366  0.48482  0.83006  1.0000
  Ti  Ti18      1.0  0.93311  0.49560  0.45341  1.0000
  Ti  Ti19      1.0  0.70485  0.93976  0.32411  1.0000
  Ti  Ti20      1.0  0.44728  0.08731  0.81561  1.0000
  Ti  Ti21      1.0  0.34414  0.47360  0.86019  1.0000
  Ti  Ti22      1.0  0.50927  0.92616  0.34228  1.0000
  Ti  Ti23      1.0  0.53821  0.80842  0.84417  1.0000
  Ti  Ti24      1.0  0.39353  0.02239  0.47852  1.0000
  Ti  Ti25      1.0  0.19253  0.32406  0.31625  1.0000
  Ti  Ti26      1.0  0.12309  0.40406  0.51936  1.0000
  Ti  Ti27      1.0  0.41143  0.54080  0.71026  1.0000
  Ti  Ti28      1.0  0.66910  0.63915  0.73408  1.0000
  Ti  Ti29      1.0  0.99633  0.24212  0.34968  1.0000
  Ti  Ti30      1.0  0.81951  0.43538  0.94612  1.0000
  Ti  Ti31      1.0  0.77702  0.44488  0.31395  1.0000
  Ti  Ti32      1.0  0.84617  0.98581  0.06532  1.0000
  Ti  Ti33      1.0  0.43467  0.85167  0.49383  1.0000
  Ti  Ti34      1.0  0.84217  0.75017  0.53641  1.0000
  Ti  Ti35      1.0  0.77000  0.26608  0.10852  1.0000
  Ti  Ti36      1.0  0.90011  0.59926  0.79926  1.0000
  Ti  Ti37      1.0  0.12888  0.19516  0.62124  1.0000
  Ti  Ti38      1.0  0.50573  0.26980  0.36277  1.0000
  Ti  Ti39      1.0  0.46333  0.23743  0.17153  1.0000
  Ti  Ti40      1.0  0.06435  0.55168  0.31647  1.0000
  Ti  Ti41      1.0  0.65872  0.63495  0.32946  1.0000
  Ti  Ti42      1.0  0.22761  0.74245  0.67477  1.0000
  Ti  Ti43      1.0  0.11375  0.98598  0.29236  1.0000
  Ti  Ti44      1.0  0.72869  0.75253  0.95290  1.0000
  Ti  Ti45      1.0  0.72622  0.43374  0.73666  1.0000
  Ti  Ti46      1.0  0.97612  0.02553  0.33855  1.0000
  Ti  Ti47      1.0  0.61596  0.23828  0.10736  1.0000
  Ti  Ti48      1.0  0.39088  0.55879  0.14103  1.0000
  Ti  Ti49      1.0  0.85881  0.91093  0.61416  1.0000
  Ti  Ti50      1.0  0.62872  0.08943  0.13539  1.0000
  Ti  Ti51      1.0  0.70260  0.01151  0.73987  1.0000
  Ti  Ti52      1.0  0.46332  0.46061  0.47394  1.0000
  Ti  Ti53      1.0  0.97620  0.79498  0.18061  1.0000
  Ti  Ti54      1.0  0.36472  0.05536  0.19473  1.0000
  Ti  Ti55      1.0  0.03567  0.92617  0.98555  1.0000
  Ti  Ti56      1.0  0.23201  0.64091  0.13307  1.0000
  Ti  Ti57      1.0  0.86105  0.13770  0.26248  1.0000
  Ti  Ti58      1.0  0.18885  0.90085  0.26710  1.0000
  Ti  Ti59      1.0  0.77451  0.04513  0.27493  1.0000
  Ti  Ti60      1.0  0.38904  0.70448  0.19148  1.0000
  Ti  Ti61      1.0  0.30399  0.79366  0.97421  1.0000
  Ti  Ti62      1.0  0.37738  0.22748  0.44043  1.0000
  Ti  Ti63      1.0  0.20774  0.15886  0.97869  1.0000
  Ti  Ti64      1.0  0.87722  0.48456  0.44973  1.0000
  Ti  Ti65      1.0  0.90296  0.21138  0.69081  1.0000
  Ti  Ti66      1.0  0.67376  0.30509  0.87182  1.0000
  Ti  Ti67      1.0  0.69959  0.88923  0.28987  1.0000
  Ti  Ti68      1.0  0.40822  0.14812  0.80922  1.0000
  Ti  Ti69      1.0  0.30836  0.42829  0.83405  1.0000
  Ti  Ti70      1.0  0.45926  0.97458  0.44700  1.0000
  Ti  Ti71      1.0  0.51227  0.81094  0.98828  1.0000
  Ti  Ti72      1.0  0.85135  0.86148  0.37634  1.0000
  Ti  Ti73      1.0  0.37206  0.62788  0.70271  1.0000
  Ti  Ti74      1.0  0.24528  0.26967  0.21242  1.0000
  Ti  Ti75      1.0  0.06420  0.44083  0.61007  1.0000
  Ti  Ti76      1.0  0.83349  0.49326  0.01828  1.0000
  Ti  Ti77      1.0  0.60833  0.63821  0.79019  1.0000
  Ti  Ti78      1.0  0.05629  0.21512  0.33012  1.0000
  Ti  Ti79      1.0  0.49122  0.81737  0.40462  1.0000
  Ti  Ti80      1.0  0.78637  0.46076  0.18657  1.0000
  Ti  Ti81      1.0  0.86505  0.97999  0.93374  1.0000
  Ti  Ti82      1.0  0.84366  0.69137  0.55110  1.0000
  Ti  Ti83      1.0  0.73803  0.33524  0.09111  1.0000
  Ti  Ti84      1.0  0.92364  0.53474  0.81408  1.0000
  Ti  Ti85      1.0  0.19933  0.17855  0.56335  1.0000
  Ti  Ti86      1.0  0.56074  0.19877  0.37759  1.0000
  Ti  Ti87      1.0  0.43556  0.25871  0.02299  1.0000
  Ti  Ti88      1.0  0.05624  0.57315  0.17811  1.0000
  Ti  Ti89      1.0  0.63497  0.59495  0.38256  1.0000
  Ti  Ti90      1.0  0.17192  0.76516  0.60872  1.0000
  Ti  Ti91      1.0  0.68239  0.41095  0.71589  1.0000
  Ti  Ti92      1.0  0.92288  0.06673  0.97697  1.0000
  Ti  Ti93      1.0  0.78523  0.67596  0.02855  1.0000
  Ti  Ti94      1.0  0.36294  0.61381  0.00382  1.0000
  Ti  Ti95      1.0  0.91046  0.01693  0.40134  1.0000
  Ti  Ti96      1.0  0.61614  0.16926  0.13435  1.0000
  I   I1        1.0  0.65779  0.13783  0.17003  1.0000
  I   I2        1.0  0.70571  0.00432  0.65004  1.0000
  I   I3        1.0  0.88985  0.86205  0.62257  1.0000
  I   I4        1.0  0.93181  0.82187  0.22756  1.0000
  I   I5        1.0  0.40695  0.95942  0.23730  1.0000
  I   I6        1.0  0.32324  0.09005  0.16007  1.0000
  I   I7        1.0  0.20244  0.67354  0.07647  1.0000
  I   I8        1.0  0.27084  0.58993  0.08876  1.0000
  I   I9        1.0  0.78693  0.16001  0.43520  1.0000
  I   I10       1.0  0.74856  0.01274  0.43570  1.0000
  I   I11       1.0  0.10054  0.65302  0.83102  1.0000
  I   I12       1.0  0.04344  0.79969  0.24385  1.0000
  I   I13       1.0  0.41719  0.21964  0.49326  1.0000
  I   I14       1.0  0.10469  0.22880  0.06007  1.0000
  I   I15       1.0  0.29867  0.84221  0.00628  1.0000
  I   I16       1.0  0.89761  0.26054  0.73909  1.0000
  I   I17       1.0  0.71006  0.29815  0.81250  1.0000
  I   I18       1.0  0.92698  0.45950  0.50928  1.0000
  I   I19       1.0  0.38442  0.17367  0.87857  1.0000
  I   I20       1.0  0.09772  0.60454  0.94959  1.0000
  I   I21       1.0  0.29990  0.44884  0.74554  1.0000
  I   I22       1.0  0.50327  0.84646  0.91898  1.0000
  I   I23       1.0  0.47404  0.80573  0.97582  1.0000
  I   I24       1.0  0.42104  0.96450  0.47098  1.0000
  I   I25       1.0  0.24284  0.30100  0.28733  1.0000
  I   I26       1.0  0.07107  0.43540  0.51691  1.0000
  I   I27       1.0  0.42572  0.51488  0.78746  1.0000
  I   I28       1.0  0.61384  0.66100  0.71069  1.0000
  I   I29       1.0  0.06124  0.25332  0.28089  1.0000
  I   I30       1.0  0.79419  0.48488  0.96879  1.0000
  I   I31       1.0  0.81977  0.42206  0.14642  1.0000
  I   I32       1.0  0.85538  0.02011  0.88650  1.0000
  I   I33       1.0  0.48949  0.82524  0.31969  1.0000
  I   I34       1.0  0.81417  0.23083  0.13283  1.0000
  I   I35       1.0  0.96611  0.50235  0.78422  1.0000
  I   I36       1.0  0.87783  0.76090  0.55482  1.0000
  I   I37       1.0  0.13902  0.16396  0.68690  1.0000
  I   I38       1.0  0.42409  0.23586  0.11564  1.0000
  I   I39       1.0  0.22854  0.19881  0.56146  1.0000
  I   I40       1.0  0.66272  0.63319  0.41662  1.0000
  I   I41       1.0  0.21692  0.75966  0.57246  1.0000
  I   I42       1.0  0.01757  0.60723  0.13274  1.0000
  I   I43       1.0  0.18913  0.86906  0.32795  1.0000
  I   I44       1.0  0.81529  0.66567  0.09419  1.0000
  I   I45       1.0  0.73528  0.39200  0.69367  1.0000
  I   I46       1.0  0.00147  0.04754  0.38484  1.0000
  I   I47       1.0  0.61529  0.21029  0.19079  1.0000
  I   I48       1.0  0.37423  0.57738  0.22328  1.0000
  I   I49       1.0  0.85762  0.89604  0.72289  1.0000
  I   I50       1.0  0.77535  0.04989  0.72414  1.0000
  I   I51       1.0  0.69645  0.10693  0.75616  1.0000
  I   I52       1.0  0.35115  0.52538  0.45392  1.0000
  I   I53       1.0  0.01760  0.76417  0.13116  1.0000
  I   I54       1.0  0.38704  0.04961  0.10967  1.0000
  I   I55       1.0  0.15811  0.85003  0.99090  1.0000
  I   I56       1.0  0.24043  0.55219  0.12568  1.0000
  I   I57       1.0  0.87579  0.17281  0.26824  1.0000
  I   I58       1.0  0.82228  0.96981  0.40686  1.0000
  I   I59       1.0  0.80987  0.99222  0.24737  1.0000
  I   I60       1.0  0.38233  0.66996  0.25131  1.0000
  I   I61       1.0  0.40700  0.21732  0.36368  1.0000
  I   I62       1.0  0.37664  0.18503  0.43842  1.0000
  I   I63       1.0  0.15297  0.25275  0.04942  1.0000
  I   I64       1.0  0.91903  0.27059  0.59837  1.0000
  I   I65       1.0  0.90472  0.18818  0.76689  1.0000
  I   I66       1.0  0.69494  0.27894  0.94426  1.0000
  I   I67       1.0  0.72826  0.86860  0.21188  1.0000
  I   I68       1.0  0.40223  0.10920  0.88064  1.0000
  I   I69       1.0  0.33832  0.51799  0.88194  1.0000
  I   I70       1.0  0.51090  0.96161  0.41558  1.0000
  I   I71       1.0  0.57282  0.76860  0.80067  1.0000
  I   I72       1.0  0.80624  0.88767  0.34939  1.0000
  I   I73       1.0  0.32388  0.64459  0.68576  1.0000
  I   I74       1.0  0.02642  0.48785  0.61741  1.0000
  I   I75       1.0  0.03487  0.42134  0.61194  1.0000
  I   I76       1.0  0.71205  0.61055  0.75940  1.0000
  I   I77       1.0  0.68123  0.63745  0.64312  1.0000
  I   I78       1.0  0.03414  0.25638  0.39444  1.0000
  I   I79       1.0  0.53583  0.81328  0.41468  1.0000
  I   I80       1.0  0.82532  0.42245  0.31101  1.0000
  I   I81       1.0  0.85531  0.94700  0.00725  1.0000
  I   I82       1.0  0.81770  0.67941  0.60557  1.0000
  I   I83       1.0  0.74038  0.24918  0.14490  1.0000
  I   I84       1.0  0.94957  0.55505  0.86599  1.0000
  I   I85       1.0  0.15905  0.21842  0.58615  1.0000
  I   I86       1.0  0.58030  0.16803  0.31192  1.0000
  I   I87       1.0  0.45791  0.20424  0.22089  1.0000
  I   I88       1.0  0.02683  0.54138  0.35220  1.0000
  I   I89       1.0  0.63505  0.55696  0.33629  1.0000
  I   I90       1.0  0.24100  0.69840  0.63173  1.0000
  I   I91       1.0  0.66277  0.39801  0.64429  1.0000
  I   I92       1.0  0.89016  0.11394  0.97124  1.0000
  I   I93       1.0  0.76780  0.73002  0.02716  1.0000
  I   I94       1.0  0.42523  0.51362  0.15591  1.0000
  I   I95       1.0  0.91494  0.01131  0.49513  1.0000
  I   I96       1.0  0.63700  0.18160  0.06452  1.0000
  I   I97       1.0  0.80711  0.83311  0.79988  1.0000
  I   I98       1.0  0.83456  0.96216  0.63824  1.0000
  I   I99       1.0  0.71429  0.08356  0.64057  1.0000
  I   I100      1.0  0.38822  0.50448  0.32935  1.0000
  I   I101      1.0  0.50443  0.46376  0.48937  1.0000
  I   I102      1.0  0.05651  0.71001  0.22131  1.0000
  I   I103      1.0  0.09885  0.83950  0.02369  1.0000
  I   I104      1.0  0.02281  0.97109  0.01086  1.0000
  I   I105      1.0  0.81267  0.17344  0.27413  1.0000
  I   I106      1.0  0.31408  0.76898  0.27387  1.0000
  I   I107      1.0  0.77318  0.96891  0.30997  1.0000
  I   I108      1.0  0.38668  0.72464  0.27714  1.0000
  I   I109      1.0  0.40182  0.81491  0.99735  1.0000
  I   I110      1.0  0.36236  0.22211  0.55728  1.0000
  I   I111      1.0  0.20046  0.17151  0.08223  1.0000
  I   I112      1.0  0.84175  0.51686  0.39603  1.0000
  I   I113      1.0  0.85229  0.25218  0.67928  1.0000
  I   I114      1.0  0.10283  0.51810  0.87512  1.0000
  I   I115      1.0  0.72449  0.93694  0.40612  1.0000
  I   I116      1.0  0.69023  0.85069  0.30177  1.0000
  I   I117      1.0  0.38198  0.13098  0.74844  1.0000
  I   I118      1.0  0.46209  0.94793  0.35039  1.0000
  I   I119      1.0  0.51973  0.90369  0.25731  1.0000
  I   I120      1.0  0.86296  0.82210  0.32806  1.0000
  I   I121      1.0  0.38635  0.51888  0.67164  1.0000
  I   I122      1.0  0.22006  0.26247  0.15256  1.0000
  I   I123      1.0  0.13513  0.42703  0.45398  1.0000
  I   I124      1.0  0.85875  0.48839  0.09476  1.0000
  I   I125      1.0  0.65135  0.68837  0.75020  1.0000
  I   I126      1.0  0.09450  0.20043  0.39591  1.0000
  I   I127      1.0  0.44597  0.85557  0.57917  1.0000
  I   I128      1.0  0.78173  0.48041  0.36271  1.0000
  I   I129      1.0  0.88916  0.98891  0.01115  1.0000
  I   I130      1.0  0.86958  0.62122  0.72792  1.0000
  I   I131      1.0  0.81376  0.75974  0.60716  1.0000
  I   I132      1.0  0.78959  0.30311  0.06912  1.0000
  I   I133      1.0  0.50971  0.21847  0.19160  1.0000
  I   I134      1.0  0.54641  0.24127  0.31581  1.0000
  I   I135      1.0  0.46993  0.30172  0.30305  1.0000
  I   I136      1.0  0.23139  0.72335  0.75271  1.0000
  I   I137      1.0  0.03680  0.59881  0.27503  1.0000
  I   I138      1.0  0.62177  0.68611  0.33039  1.0000
  I   I139      1.0  0.77217  0.40715  0.77340  1.0000
  I   I140      1.0  0.94048  0.04966  0.05590  1.0000
  I   I141      1.0  0.82199  0.66088  0.97155  1.0000
  I   I142      1.0  0.36121  0.65748  0.99427  1.0000
  I   I143      1.0  0.93137  0.01615  0.30944  1.0000
  I   I144      1.0  0.58800  0.28247  0.13650  1.0000
  I   I145      1.0  0.92058  0.90662  0.65262  1.0000
  I   I146      1.0  0.66061  0.02353  0.79011  1.0000
  I   I147      1.0  0.81934  0.85652  0.91507  1.0000
  I   I148      1.0  0.44640  0.44482  0.54574  1.0000
  I   I149      1.0  0.94867  0.77964  0.12880  1.0000
  I   I150      1.0  0.39648  0.96633  0.11432  1.0000
  I   I151      1.0  0.00699  0.94038  0.90803  1.0000
  I   I152      1.0  0.27251  0.64960  0.13821  1.0000
  I   I153      1.0  0.75240  0.21437  0.36834  1.0000
  I   I154      1.0  0.08718  0.00542  0.22356  1.0000
  I   I155      1.0  0.10140  0.67657  0.96191  1.0000
  I   I156      1.0  0.34782  0.71770  0.37024  1.0000
  I   I157      1.0  0.34605  0.80113  0.95990  1.0000
  I   I158      1.0  0.20023  0.20017  0.92717  1.0000
  I   I159      1.0  0.31561  0.75117  0.93891  1.0000
  I   I160      1.0  0.94611  0.52740  0.41403  1.0000
  I   I161      1.0  0.12607  0.45201  0.82438  1.0000
  I   I162      1.0  0.88455  0.52255  0.49016  1.0000
  I   I163      1.0  0.73286  0.87833  0.35521  1.0000
  I   I164      1.0  0.45359  0.12660  0.84626  1.0000
  I   I165      1.0  0.35627  0.41818  0.85572  1.0000
  I   I166      1.0  0.49021  0.93315  0.49891  1.0000
  I   I167      1.0  0.55184  0.84264  0.82720  1.0000
  I   I168      1.0  0.39865  0.06362  0.45985  1.0000
  I   I169      1.0  0.20058  0.27905  0.27697  1.0000
  I   I170      1.0  0.20590  0.34011  0.38722  1.0000
  I   I171      1.0  0.37889  0.58075  0.76219  1.0000
  I   I172      1.0  0.85721  0.51291  0.96556  1.0000
  I   I173      1.0  0.08327  0.18487  0.26704  1.0000
  I   I174      1.0  0.84190  0.38716  0.93092  1.0000
  I   I175      1.0  0.75554  0.49333  0.25399  1.0000
  I   I176      1.0  0.90393  0.94946  0.88778  1.0000
  I   I177      1.0  0.45926  0.87059  0.44360  1.0000
  I   I178      1.0  0.82436  0.78707  0.47521  1.0000
  I   I179      1.0  0.75596  0.26293  0.02702  1.0000
  I   I180      1.0  0.93183  0.56864  0.73342  1.0000
  I   I181      1.0  0.09779  0.19200  0.56603  1.0000
  I   I182      1.0  0.59978  0.20258  0.40830  1.0000
  I   I183      1.0  0.46986  0.26287  0.08403  1.0000
  I   I184      1.0  0.04743  0.53584  0.21737  1.0000
  I   I185      1.0  0.69046  0.65119  0.30874  1.0000
  I   I186      1.0  0.14951  0.75258  0.67557  1.0000
  I   I187      1.0  0.89123  0.05204  0.94628  1.0000
  I   I188      1.0  0.74370  0.70119  0.95342  1.0000
  I   I189      1.0  0.67762  0.45601  0.68801  1.0000
  I   I190      1.0  0.95770  0.04840  0.26505  1.0000
  I   I191      1.0  0.59569  0.14273  0.17985  1.0000
  I   I192      1.0  0.39988  0.56005  0.04142  1.0000
  I   I193      1.0  0.86653  0.92427  0.53631  1.0000
  I   I194      1.0  0.58836  0.08558  0.11177  1.0000
  I   I195      1.0  0.74422  0.86750  0.88428  1.0000
  I   I196      1.0  0.41395  0.50491  0.49798  1.0000
  I   I197      1.0  0.16150  0.95944  0.23625  1.0000
  I   I198      1.0  0.38871  0.02294  0.27436  1.0000
  I   I199      1.0  0.08423  0.88860  0.94843  1.0000
  I   I200      1.0  0.21293  0.65714  0.22103  1.0000
  I   I201      1.0  0.81131  0.21776  0.39987  1.0000
  I   I202      1.0  0.79800  0.07404  0.26727  1.0000
  I   I203      1.0  0.25729  0.44799  0.83820  1.0000
  I   I204      1.0  0.35445  0.69524  0.15099  1.0000
  I   I205      1.0  0.36833  0.28183  0.44623  1.0000
  I   I206      1.0  0.25567  0.13996  0.99383  1.0000
  I   I207      1.0  0.27566  0.78909  0.03806  1.0000
  I   I208      1.0  0.85183  0.28799  0.58506  1.0000
  I   I209      1.0  0.18553  0.46860  0.87213  1.0000
  I   I210      1.0  0.97209  0.48189  0.50164  1.0000
  I   I211      1.0  0.67808  0.93218  0.23592  1.0000
  I   I212      1.0  0.48913  0.05437  0.85345  1.0000
  I   I213      1.0  0.35281  0.46224  0.94571  1.0000
  I   I214      1.0  0.53199  0.88951  0.39728  1.0000
  I   I215      1.0  0.56229  0.78818  0.92724  1.0000
  I   I216      1.0  0.36081  0.02099  0.42205  1.0000
  I   I217      1.0  0.15520  0.31648  0.35934  1.0000
  I   I218      1.0  0.16404  0.37936  0.56420  1.0000
  I   I219      1.0  0.39924  0.58376  0.64880  1.0000
  I   I220      1.0  0.57452  0.61981  0.77028  1.0000
  I   I221      1.0  0.03361  0.19353  0.38038  1.0000
  I   I222      1.0  0.79216  0.42909  0.00904  1.0000
  I   I223      1.0  0.81604  0.48221  0.18366  1.0000
  I   I224      1.0  0.81739  0.03336  0.04645  1.0000
  I   I225      1.0  0.38669  0.88206  0.50843  1.0000
  I   I226      1.0  0.86841  0.70996  0.48478  1.0000
  I   I227      1.0  0.76215  0.30590  0.17384  1.0000
  I   I228      1.0  0.89187  0.51843  0.78686  1.0000
  I   I229      1.0  0.23044  0.14699  0.62136  1.0000
  I   I230      1.0  0.46513  0.28954  0.42974  1.0000
  I   I231      1.0  0.40184  0.30400  0.02233  1.0000
  I   I232      1.0  0.09892  0.50504  0.32764  1.0000
  I   I233      1.0  0.61811  0.62834  0.30295  1.0000
  I   I234      1.0  0.16920  0.73611  0.54806  1.0000
  I   I235      1.0  0.14385  0.93381  0.32937  1.0000
  I   I236      1.0  0.73668  0.79435  0.95015  1.0000
  I   I237      1.0  0.73776  0.46474  0.69037  1.0000
  I   I238      1.0  0.93799  0.04433  0.40953  1.0000
  I   I239      1.0  0.58138  0.21341  0.09069  1.0000
  I   I240      1.0  0.37791  0.59693  0.92048  1.0000
  I   I241      1.0  0.95268  0.83916  0.69315  1.0000
  I   I242      1.0  0.73521  0.01955  0.78298  1.0000
  I   I243      1.0  0.80988  0.79603  0.93472  1.0000
  I   I244      1.0  0.39389  0.55715  0.38637  1.0000
  I   I245      1.0  0.08824  0.74751  0.17551  1.0000
  I   I246      1.0  0.44506  0.99498  0.18802  1.0000
  I   I247      1.0  0.07148  0.90905  0.06444  1.0000
  I   I248      1.0  0.28571  0.56558  0.21042  1.0000
  I   I249      1.0  0.85309  0.14068  0.36673  1.0000
  I   I250      1.0  0.73718  0.04477  0.31764  1.0000
  I   I251      1.0  0.04129  0.67654  0.92363  1.0000
  I   I252      1.0  0.36523  0.75362  0.16021  1.0000
  I   I253      1.0  0.39823  0.27207  0.57557  1.0000
  I   I254      1.0  0.12768  0.23265  0.16268  1.0000
  I   I255      1.0  0.26549  0.81503  0.91943  1.0000
  I   I256      1.0  0.94615  0.20404  0.65702  1.0000
  I   I257      1.0  0.14954  0.49450  0.74147  1.0000
  I   I258      1.0  0.88383  0.44023  0.42988  1.0000
  I   I259      1.0  0.73977  0.92039  0.25980  1.0000
  I   I260      1.0  0.42242  0.17472  0.75508  1.0000
  I   I261      1.0  0.29721  0.48515  0.83452  1.0000
  I   I262      1.0  0.54117  0.94190  0.31613  1.0000
  I   I263      1.0  0.49531  0.81980  0.79742  1.0000
  I   I264      1.0  0.36836  0.03385  0.55307  1.0000
  I   I265      1.0  0.17011  0.36474  0.27449  1.0000
  I   I266      1.0  0.10606  0.44976  0.59702  1.0000
  I   I267      1.0  0.45857  0.51800  0.67843  1.0000
  I   I268      1.0  0.63585  0.63630  0.86180  1.0000
  I   I269      1.0  0.96591  0.23797  0.41496  1.0000
  I   I270      1.0  0.79211  0.53436  0.04136  1.0000
  I   I271      1.0  0.77313  0.42714  0.23120  1.0000
  I   I272      1.0  0.81823  0.96798  0.10436  1.0000
  I   I273      1.0  0.43743  0.82450  0.41757  1.0000
  I   I274      1.0  0.87308  0.65051  0.51231  1.0000
  I   I275      1.0  0.73739  0.34523  0.00332  1.0000
  I   I276      1.0  0.87445  0.58793  0.86342  1.0000
  I   I277      1.0  0.09682  0.22800  0.67273  1.0000
  I   I278      1.0  0.53564  0.27673  0.41794  1.0000
  I   I279      1.0  0.46512  0.25594  0.95190  1.0000
  I   I280      1.0  0.07408  0.54989  0.10592  1.0000
  I   I281      1.0  0.59113  0.62047  0.42115  1.0000
  I   I282      1.0  0.27152  0.74533  0.66000  1.0000
  I   I283      1.0  0.08633  0.99773  0.36578  1.0000
  I   I284      1.0  0.68725  0.76735  0.99203  1.0000
  I   I285      1.0  0.69249  0.42854  0.80768  1.0000
  I   I286      1.0  0.00825  0.97882  0.34153  1.0000
  I   I287      1.0  0.61534  0.13208  0.07158  1.0000
  I   I288      1.0  0.42802  0.57476  0.13871  1.0000
  I   I289      1.0  0.90593  0.90549  0.78368  1.0000
  I   I290      1.0  0.64271  0.06915  0.21810  1.0000
  I   I291      1.0  0.68021  0.06426  0.70242  1.0000
  I   I292      1.0  0.45081  0.48928  0.38879  1.0000
  I   I293      1.0  0.97489  0.83445  0.14221  1.0000
  I   I294      1.0  0.34840  0.02136  0.17915  1.0000
  I   I295      1.0  0.13226  0.86550  0.12475  1.0000
  I   I296      1.0  0.19818  0.61978  0.10916  1.0000
  I   I297      1.0  0.85153  0.09594  0.27500  1.0000
  I   I298      1.0  0.17396  0.88882  0.19712  1.0000
  I   I299      1.0  0.79104  0.03832  0.37235  1.0000
  I   I300      1.0  0.43913  0.68178  0.17804  1.0000
  I   I301      1.0  0.34310  0.84114  0.08987  1.0000
  I   I302      1.0  0.32234  0.29522  0.54397  1.0000
  I   I303      1.0  0.15758  0.18176  0.99538  1.0000
  I   I304      1.0  0.93825  0.46442  0.38583  1.0000
  I   I305      1.0  0.86163  0.32950  0.67057  1.0000
  I   I306      1.0  0.64700  0.28475  0.83617  1.0000
  I   I307      1.0  0.67984  0.98845  0.30846  1.0000
  I   I308      1.0  0.43758  0.05284  0.78055  1.0000
  I   I309      1.0  0.38647  0.46382  0.81684  1.0000
  I   I310      1.0  0.46070  0.00477  0.50745  1.0000
  I   I311      1.0  0.50097  0.83631  0.06119  1.0000
  I   I312      1.0  0.86835  0.89312  0.34646  1.0000
  I   I313      1.0  0.39433  0.64566  0.65131  1.0000
  I   I314      1.0  0.27924  0.22505  0.23615  1.0000
  I   I315      1.0  0.13047  0.36743  0.46843  1.0000
  I   I316      1.0  0.80800  0.45494  0.85595  1.0000
  I   I317      1.0  0.56887  0.68366  0.82578  1.0000
  I   I318      1.0  0.96383  0.29189  0.35647  1.0000
  I   I319      1.0  0.48634  0.81217  0.50039  1.0000
  I   I320      1.0  0.77724  0.41368  0.37282  1.0000
  I   I321      1.0  0.88031  0.97687  0.12669  1.0000
  I   I322      1.0  0.86997  0.68800  0.63036  1.0000
  I   I323      1.0  0.69772  0.32990  0.10412  1.0000
  I   I324      1.0  0.92640  0.50826  0.89499  1.0000
  I   I325      1.0  0.21468  0.15144  0.48337  1.0000
  I   I326      1.0  0.56486  0.16397  0.43408  1.0000
  I   I327      1.0  0.41074  0.23952  0.98480  1.0000
  I   I328      1.0  0.09173  0.58373  0.19912  1.0000
  I   I329      1.0  0.67925  0.58677  0.31493  1.0000
  I   I330      1.0  0.18834  0.78975  0.67527  1.0000
  I   I331      1.0  0.63839  0.42710  0.75760  1.0000
  I   I332      1.0  0.13522  0.01450  0.31654  1.0000
  I   I333      1.0  0.77385  0.63968  0.02352  1.0000
  I   I334      1.0  0.31312  0.62764  0.00712  1.0000
  I   I335      1.0  0.89726  0.98210  0.39686  1.0000
  I   I336      1.0  0.66385  0.22255  0.12873  1.0000
  I   I337      1.0  0.81078  0.91626  0.62556  1.0000
  I   I338      1.0  0.66150  0.05998  0.07825  1.0000
  I   I339      1.0  0.72190  0.96117  0.75276  1.0000
  I   I340      1.0  0.48927  0.42004  0.42590  1.0000
  I   I341      1.0  0.99216  0.76470  0.25322  1.0000
  I   I342      1.0  0.36485  0.08818  0.25560  1.0000
  I   I343      1.0  0.00410  0.91984  0.03799  1.0000
  I   I344      1.0  0.20015  0.59443  0.21702  1.0000
  I   I345      1.0  0.85256  0.13449  0.17389  1.0000
  I   I346      1.0  0.23121  0.90152  0.24853  1.0000
  I   I347      1.0  0.75232  0.05377  0.19438  1.0000
  I   I348      1.0  0.31464  0.69433  0.27623  1.0000
  I   I349      1.0  0.33453  0.87102  0.94106  1.0000
  I   I350      1.0  0.32726  0.26194  0.44270  1.0000
  I   I351      1.0  0.21034  0.11824  0.93621  1.0000
  I   I352      1.0  0.84889  0.48705  0.51917  1.0000
  I   I353      1.0  0.90506  0.16964  0.65481  1.0000
  I   I354      1.0  0.64873  0.35248  0.88509  1.0000
  I   I355      1.0  0.66778  0.92921  0.35903  1.0000
  I   I356      1.0  0.46684  0.08548  0.73252  1.0000
  I   I357      1.0  0.31736  0.38293  0.87593  1.0000
  I   I358      1.0  0.42591  0.01297  0.39482  1.0000
  I   I359      1.0  0.54126  0.76404  0.02034  1.0000
  I   I360      1.0  0.86903  0.84119  0.45792  1.0000
  I   I361      1.0  0.36640  0.65733  0.77398  1.0000
  I   I362      1.0  0.26850  0.29177  0.16932  1.0000
  I   I363      1.0  0.07689  0.42621  0.69238  1.0000
  I   I364      1.0  0.84794  0.44463  0.02019  1.0000
  I   I365      1.0  0.64838  0.60588  0.74607  1.0000
  I   I366      1.0  0.99899  0.23358  0.26229  1.0000
  I   I367      1.0  0.50618  0.76653  0.39831  1.0000
  I   I368      1.0  0.74840  0.47739  0.12275  1.0000
  I   I369      1.0  0.82844  0.97582  0.88798  1.0000
  I   I370      1.0  0.80498  0.73046  0.50105  1.0000
  I   I371      1.0  0.74027  0.37736  0.11931  1.0000
  I   I372      1.0  0.91848  0.62946  0.81666  1.0000
  I   I373      1.0  0.17359  0.14724  0.56418  1.0000
  I   I374      1.0  0.50690  0.22144  0.37884  1.0000
  I   I375      1.0  0.44160  0.28060  0.21318  1.0000
  I   I376      1.0  0.08347  0.56840  0.37915  1.0000
  I   I377      1.0  0.66352  0.56584  0.44605  1.0000
  I   I378      1.0  0.14220  0.80450  0.55769  1.0000
  I   I379      1.0  0.69978  0.36502  0.75436  1.0000
  I   I380      1.0  0.96123  0.04711  0.91684  1.0000
  I   I381      1.0  0.73499  0.75423  0.86114  1.0000
  I   I382      1.0  0.35828  0.60707  0.09975  1.0000
  I   I383      1.0  0.86830  0.06364  0.38826  1.0000
  I   I384      1.0  0.62520  0.24884  0.02080  1.0000
