data_image0
_chemical_formula_structural       Ti96I384
_chemical_formula_sum              "Ti96 I384"
_cell_length_a       44.9374
_cell_length_b       44.627
_cell_length_c       22.7091
_cell_angle_alpha    88.7757
_cell_angle_beta     88.7757
_cell_angle_gamma    62.1586

_space_group_name_H-M_alt    "P 1"
_space_group_IT_number       1

loop_
  _space_group_symop_operation_xyz
  'x, y, z'

loop_
  _atom_site_type_symbol
  _atom_site_label
  _atom_site_symmetry_multiplicity
  _atom_site_fract_x
  _atom_site_fract_y
  _atom_site_fract_z
  _atom_site_occupancy
  Ti  Ti1       1.0  0.34552  0.07104  0.74094  1.0000
  Ti  Ti2       1.0  0.20184  0.02174  0.17623  1.0000
  Ti  Ti3       1.0  0.31191  0.03653  0.42416  1.0000
  Ti  Ti4       1.0  0.21444  0.31038  0.20730  1.0000
  Ti  Ti5       1.0  0.20539  0.32500  0.57511  1.0000
  Ti  Ti6       1.0  0.22221  0.30455  0.89018  1.0000
  Ti  Ti7       1.0  0.10129  0.56190  0.47740  1.0000
  Ti  Ti8       1.0  0.92316  0.76181  0.90843  1.0000
  Ti  Ti9       1.0  0.04024  0.68581  0.21644  1.0000
  Ti  Ti10      1.0  0.02079  0.90781  0.27673  1.0000
  Ti  Ti11      1.0  0.10177  0.86841  0.63414  1.0000
  Ti  Ti12      1.0  0.12149  0.85199  0.99163  1.0000
  Ti  Ti13      1.0  0.47631  0.11078  0.27701  1.0000
  Ti  Ti14      1.0  0.49221  0.12459  0.61283  1.0000
  Ti  Ti15      1.0  0.48575  0.13233  0.93734  1.0000
  Ti  Ti16      1.0  0.33120  0.41025  0.72659  1.0000
  Ti  Ti17      1.0  0.27585  0.46007  0.01409  1.0000
  Ti  Ti18      1.0  0.34807  0.40355  0.37815  1.0000
  Ti  Ti19      1.0  0.31481  0.83331  0.36665  1.0000
  Ti  Ti20      1.0  0.40294  0.64876  0.93110  1.0000
  Ti  Ti21      1.0  0.30499  0.67585  0.32445  1.0000
  Ti  Ti22      1.0  0.25721  0.93058  0.72604  1.0000
  Ti  Ti23      1.0  0.44473  0.85802  0.09576  1.0000
  Ti  Ti24      1.0  0.43272  0.88039  0.59146  1.0000
  Ti  Ti25      1.0  0.67116  0.17540  0.47260  1.0000
  Ti  Ti26      1.0  0.65799  0.17875  0.83221  1.0000
  Ti  Ti27      1.0  0.63765  0.19037  0.14358  1.0000
  Ti  Ti28      1.0  0.59353  0.39233  0.14662  1.0000
  Ti  Ti29      1.0  0.66797  0.35599  0.53514  1.0000
  Ti  Ti30      1.0  0.63538  0.37717  0.80462  1.0000
  Ti  Ti31      1.0  0.59240  0.63028  0.20037  1.0000
  Ti  Ti32      1.0  0.71593  0.52989  0.61284  1.0000
  Ti  Ti33      1.0  0.68772  0.53032  0.95591  1.0000
  Ti  Ti34      1.0  0.70405  0.76425  0.24020  1.0000
  Ti  Ti35      1.0  0.70793  0.76225  0.56674  1.0000
  Ti  Ti36      1.0  0.72533  0.76258  0.89103  1.0000
  Ti  Ti37      1.0  0.86117  0.11824  0.16088  1.0000
  Ti  Ti38      1.0  0.88389  0.11253  0.48513  1.0000
  Ti  Ti39      1.0  0.86558  0.12037  0.84746  1.0000
  Ti  Ti40      1.0  0.00938  0.25110  0.03404  1.0000
  Ti  Ti41      1.0  0.04683  0.20313  0.35841  1.0000
  Ti  Ti42      1.0  0.08475  0.13159  0.68914  1.0000
  Ti  Ti43      1.0  0.94817  0.49761  0.27996  1.0000
  Ti  Ti44      1.0  0.93585  0.49731  0.61006  1.0000
  Ti  Ti45      1.0  0.93299  0.50883  0.93637  1.0000
  Ti  Ti46      1.0  0.75604  0.93304  0.22015  1.0000
  Ti  Ti47      1.0  0.75646  0.94231  0.54218  1.0000
  Ti  Ti48      1.0  0.75370  0.93145  0.87747  1.0000
  Ti  Ti49      1.0  0.30271  0.10752  0.58599  1.0000
  Ti  Ti50      1.0  0.11949  0.02154  0.11954  1.0000
  Ti  Ti51      1.0  0.21793  0.06973  0.34883  1.0000
  Ti  Ti52      1.0  0.14782  0.35576  0.06137  1.0000
  Ti  Ti53      1.0  0.13380  0.36992  0.41614  1.0000
  Ti  Ti54      1.0  0.16419  0.36679  0.73764  1.0000
  Ti  Ti55      1.0  0.06093  0.64600  0.39804  1.0000
  Ti  Ti56      1.0  0.91243  0.79575  0.75332  1.0000
  Ti  Ti57      1.0  0.95147  0.76510  0.14666  1.0000
  Ti  Ti58      1.0  0.02375  0.90124  0.07518  1.0000
  Ti  Ti59      1.0  0.91099  0.94963  0.34160  1.0000
  Ti  Ti60      1.0  0.10279  0.84811  0.79601  1.0000
  Ti  Ti61      1.0  0.44874  0.18562  0.10442  1.0000
  Ti  Ti62      1.0  0.43553  0.16023  0.42850  1.0000
  Ti  Ti63      1.0  0.45264  0.19197  0.78812  1.0000
  Ti  Ti64      1.0  0.32124  0.40370  0.53638  1.0000
  Ti  Ti65      1.0  0.24541  0.48513  0.82595  1.0000
  Ti  Ti66      1.0  0.22388  0.49974  0.17735  1.0000
  Ti  Ti67      1.0  0.30270  0.77260  0.28613  1.0000
  Ti  Ti68      1.0  0.31057  0.69400  0.90154  1.0000
  Ti  Ti69      1.0  0.27236  0.61626  0.28944  1.0000
  Ti  Ti70      1.0  0.35077  0.90124  0.67791  1.0000
  Ti  Ti71      1.0  0.47257  0.83378  0.93008  1.0000
  Ti  Ti72      1.0  0.44233  0.92001  0.24947  1.0000
  Ti  Ti73      1.0  0.59320  0.21021  0.32172  1.0000
  Ti  Ti74      1.0  0.61446  0.20690  0.64099  1.0000
  Ti  Ti75      1.0  0.58606  0.23885  0.97854  1.0000
  Ti  Ti76      1.0  0.55352  0.42565  0.95681  1.0000
  Ti  Ti77      1.0  0.51120  0.43928  0.27596  1.0000
  Ti  Ti78      1.0  0.58863  0.38737  0.63233  1.0000
  Ti  Ti79      1.0  0.59225  0.61284  0.02288  1.0000
  Ti  Ti80      1.0  0.53133  0.67074  0.32591  1.0000
  Ti  Ti81      1.0  0.67069  0.54326  0.75843  1.0000
  Ti  Ti82      1.0  0.65810  0.79110  0.05417  1.0000
  Ti  Ti83      1.0  0.64537  0.79312  0.38881  1.0000
  Ti  Ti84      1.0  0.64658  0.78227  0.73239  1.0000
  Ti  Ti85      1.0  0.84017  0.19755  0.00518  1.0000
  Ti  Ti86      1.0  0.86293  0.16749  0.32041  1.0000
  Ti  Ti87      1.0  0.84868  0.17646  0.66718  1.0000
  Ti  Ti88      1.0  0.96848  0.29194  0.89231  1.0000
  Ti  Ti89      1.0  0.98260  0.27961  0.22027  1.0000
  Ti  Ti90      1.0  0.01702  0.21877  0.55433  1.0000
  Ti  Ti91      1.0  0.89219  0.59916  0.05049  1.0000
  Ti  Ti92      1.0  0.90670  0.52563  0.44535  1.0000
  Ti  Ti93      1.0  0.87150  0.57048  0.75410  1.0000
  Ti  Ti94      1.0  0.69747  0.98476  0.04939  1.0000
  Ti  Ti95      1.0  0.69009  0.95391  0.37808  1.0000
  Ti  Ti96      1.0  0.69978  0.97659  0.71025  1.0000
  I   I1        1.0  0.14306  0.97461  0.03618  1.0000
  I   I2        1.0  0.19690  0.02398  0.31114  1.0000
  I   I3        1.0  0.27779  0.06060  0.54403  1.0000
  I   I4        1.0  0.12604  0.33462  0.33403  1.0000
  I   I5        1.0  0.14646  0.33899  0.63241  1.0000
  I   I6        1.0  0.15145  0.31206  0.97206  1.0000
  I   I7        1.0  0.93382  0.74344  0.68215  1.0000
  I   I8        1.0  0.87560  0.77893  0.00388  1.0000
  I   I9        1.0  0.00429  0.68620  0.32562  1.0000
  I   I10       1.0  0.96590  0.89196  0.29629  1.0000
  I   I11       1.0  0.11999  0.79875  0.72159  1.0000
  I   I12       1.0  0.06335  0.84428  0.00741  1.0000
  I   I13       1.0  0.40800  0.14746  0.32987  1.0000
  I   I14       1.0  0.43006  0.17234  0.68444  1.0000
  I   I15       1.0  0.42697  0.17297  0.00038  1.0000
  I   I16       1.0  0.26173  0.42912  0.74318  1.0000
  I   I17       1.0  0.20700  0.48775  0.05715  1.0000
  I   I18       1.0  0.33226  0.35999  0.45034  1.0000
  I   I19       1.0  0.35456  0.62306  0.92287  1.0000
  I   I20       1.0  0.20895  0.64083  0.26838  1.0000
  I   I21       1.0  0.25667  0.74884  0.32082  1.0000
  I   I22       1.0  0.43939  0.79817  0.90646  1.0000
  I   I23       1.0  0.40051  0.86961  0.01631  1.0000
  I   I24       1.0  0.39417  0.83550  0.69222  1.0000
  I   I25       1.0  0.63243  0.15601  0.55288  1.0000
  I   I26       1.0  0.59100  0.20039  0.88182  1.0000
  I   I27       1.0  0.57948  0.19103  0.21462  1.0000
  I   I28       1.0  0.53255  0.38917  0.17428  1.0000
  I   I29       1.0  0.60343  0.35509  0.53624  1.0000
  I   I30       1.0  0.56994  0.38453  0.84539  1.0000
  I   I31       1.0  0.52696  0.64569  0.21847  1.0000
  I   I32       1.0  0.67289  0.50652  0.66821  1.0000
  I   I33       1.0  0.61047  0.55666  0.95091  1.0000
  I   I34       1.0  0.65289  0.75510  0.28409  1.0000
  I   I35       1.0  0.65992  0.73928  0.63746  1.0000
  I   I36       1.0  0.67177  0.74858  0.96394  1.0000
  I   I37       1.0  0.82439  0.18284  0.21883  1.0000
  I   I38       1.0  0.84555  0.17948  0.53756  1.0000
  I   I39       1.0  0.79941  0.18852  0.91938  1.0000
  I   I40       1.0  0.95991  0.25968  0.11387  1.0000
  I   I41       1.0  0.99055  0.20790  0.45237  1.0000
  I   I42       1.0  0.99710  0.24558  0.81358  1.0000
  I   I43       1.0  0.89370  0.49332  0.35558  1.0000
  I   I44       1.0  0.87069  0.53390  0.66798  1.0000
  I   I45       1.0  0.88666  0.53821  0.02248  1.0000
  I   I46       1.0  0.69495  0.91879  0.28030  1.0000
  I   I47       1.0  0.70928  0.93445  0.61212  1.0000
  I   I48       1.0  0.68943  0.97248  0.93298  1.0000
  I   I49       1.0  0.31752  0.14334  0.66871  1.0000
  I   I50       1.0  0.12291  0.06966  0.19146  1.0000
  I   I51       1.0  0.25945  0.10071  0.37765  1.0000
  I   I52       1.0  0.17129  0.37328  0.15695  1.0000
  I   I53       1.0  0.17088  0.38587  0.50504  1.0000
  I   I54       1.0  0.19845  0.37260  0.83045  1.0000
  I   I55       1.0  0.12714  0.60820  0.44271  1.0000
  I   I56       1.0  0.88908  0.83019  0.87866  1.0000
  I   I57       1.0  0.99285  0.75679  0.23330  1.0000
  I   I58       1.0  0.98238  0.94673  0.17039  1.0000
  I   I59       1.0  0.88113  0.91915  0.38900  1.0000
  I   I60       1.0  0.09116  0.89894  0.88862  1.0000
  I   I61       1.0  0.47295  0.18357  0.21012  1.0000
  I   I62       1.0  0.47783  0.17444  0.53806  1.0000
  I   I63       1.0  0.47702  0.19710  0.89330  1.0000
  I   I64       1.0  0.30438  0.45681  0.63371  1.0000
  I   I65       1.0  0.24217  0.52292  0.91762  1.0000
  I   I66       1.0  0.24249  0.50186  0.28460  1.0000
  I   I67       1.0  0.35207  0.78656  0.25885  1.0000
  I   I68       1.0  0.34277  0.69905  0.99433  1.0000
  I   I69       1.0  0.28652  0.66641  0.20931  1.0000
  I   I70       1.0  0.29718  0.95786  0.63504  1.0000
  I   I71       1.0  0.48214  0.87874  0.01965  1.0000
  I   I72       1.0  0.47545  0.90761  0.34561  1.0000
  I   I73       1.0  0.60511  0.23109  0.45042  1.0000
  I   I74       1.0  0.62273  0.23599  0.75115  1.0000
  I   I75       1.0  0.59912  0.25800  0.07702  1.0000
  I   I76       1.0  0.54715  0.45140  0.06907  1.0000
  I   I77       1.0  0.49713  0.45671  0.38301  1.0000
  I   I78       1.0  0.59082  0.42773  0.72823  1.0000
  I   I79       1.0  0.57274  0.67506  0.09779  1.0000
  I   I80       1.0  0.54463  0.68752  0.42938  1.0000
  I   I81       1.0  0.68362  0.57324  0.85950  1.0000
  I   I82       1.0  0.65283  0.82747  0.16510  1.0000
  I   I83       1.0  0.64208  0.82302  0.50496  1.0000
  I   I84       1.0  0.66234  0.80534  0.84092  1.0000
  I   I85       1.0  0.88814  0.16707  0.08640  1.0000
  I   I86       1.0  0.91227  0.14651  0.41060  1.0000
  I   I87       1.0  0.85882  0.18189  0.79511  1.0000
  I   I88       1.0  0.97023  0.32399  0.00196  1.0000
  I   I89       1.0  0.00512  0.27742  0.34225  1.0000
  I   I90       1.0  0.06534  0.20339  0.63342  1.0000
  I   I91       1.0  0.91848  0.60157  0.14779  1.0000
  I   I92       1.0  0.93654  0.54477  0.52782  1.0000
  I   I93       1.0  0.88504  0.58110  0.86772  1.0000
  I   I94       1.0  0.71854  0.99615  0.16834  1.0000
  I   I95       1.0  0.68899  0.99331  0.48366  1.0000
  I   I96       1.0  0.72575  0.99607  0.79790  1.0000
  I   I97       1.0  0.33430  0.08843  0.47722  1.0000
  I   I98       1.0  0.31373  0.10885  0.83107  1.0000
  I   I99       1.0  0.23732  0.05576  0.21209  1.0000
  I   I100      1.0  0.21545  0.32788  0.00453  1.0000
  I   I101      1.0  0.21050  0.34761  0.30323  1.0000
  I   I102      1.0  0.21597  0.36469  0.67188  1.0000
  I   I103      1.0  0.09154  0.66931  0.30289  1.0000
  I   I104      1.0  0.12426  0.54965  0.58972  1.0000
  I   I105      1.0  0.97088  0.76766  0.02313  1.0000
  I   I106      1.0  0.08021  0.91522  0.06064  1.0000
  I   I107      1.0  0.96745  0.96366  0.33535  1.0000
  I   I108      1.0  0.14167  0.87593  0.75292  1.0000
  I   I109      1.0  0.51557  0.13772  0.05348  1.0000
  I   I110      1.0  0.50202  0.11822  0.38462  1.0000
  I   I111      1.0  0.51754  0.14125  0.70788  1.0000
  I   I112      1.0  0.37762  0.40807  0.51089  1.0000
  I   I113      1.0  0.31927  0.45919  0.80034  1.0000
  I   I114      1.0  0.27678  0.49970  0.11093  1.0000
  I   I115      1.0  0.34711  0.70438  0.29116  1.0000
  I   I116      1.0  0.27842  0.87851  0.44143  1.0000
  I   I117      1.0  0.42566  0.69179  0.89964  1.0000
  I   I118      1.0  0.39118  0.93168  0.66156  1.0000
  I   I119      1.0  0.19876  0.94959  0.67487  1.0000
  I   I120      1.0  0.41540  0.92642  0.13451  1.0000
  I   I121      1.0  0.63657  0.22044  0.24733  1.0000
  I   I122      1.0  0.66993  0.20514  0.57973  1.0000
  I   I123      1.0  0.65575  0.21261  0.94242  1.0000
  I   I124      1.0  0.63175  0.40753  0.92069  1.0000
  I   I125      1.0  0.57711  0.42837  0.24326  1.0000
  I   I126      1.0  0.61894  0.42438  0.56742  1.0000
  I   I127      1.0  0.66596  0.59130  0.01090  1.0000
  I   I128      1.0  0.56654  0.69534  0.25352  1.0000
  I   I129      1.0  0.74276  0.51284  0.74522  1.0000
  I   I130      1.0  0.72164  0.78787  0.00584  1.0000
  I   I131      1.0  0.69157  0.80917  0.33278  1.0000
  I   I132      1.0  0.69392  0.79979  0.66301  1.0000
  I   I133      1.0  0.89591  0.13097  0.94199  1.0000
  I   I134      1.0  0.90366  0.10002  0.24872  1.0000
  I   I135      1.0  0.90449  0.11778  0.62187  1.0000
  I   I136      1.0  0.14223  0.08923  0.63164  1.0000
  I   I137      1.0  0.03828  0.25655  0.13415  1.0000
  I   I138      1.0  0.08339  0.18945  0.45651  1.0000
  I   I139      1.0  0.95400  0.54975  0.00911  1.0000
  I   I140      1.0  0.97903  0.47143  0.39940  1.0000
  I   I141      1.0  0.94662  0.52455  0.72584  1.0000
  I   I142      1.0  0.76817  0.95032  0.98170  1.0000
  I   I143      1.0  0.75475  0.96144  0.31908  1.0000
  I   I144      1.0  0.76243  0.96832  0.65568  1.0000
  I   I145      1.0  0.36668  0.04881  0.63052  1.0000
  I   I146      1.0  0.17554  0.97538  0.18992  1.0000
  I   I147      1.0  0.27969  0.00630  0.37803  1.0000
  I   I148      1.0  0.18585  0.28314  0.13262  1.0000
  I   I149      1.0  0.18954  0.31116  0.47231  1.0000
  I   I150      1.0  0.18972  0.29860  0.79349  1.0000
  I   I151      1.0  0.07045  0.58120  0.35722  1.0000
  I   I152      1.0  0.88127  0.75720  0.84022  1.0000
  I   I153      1.0  0.98500  0.68940  0.14631  1.0000
  I   I154      1.0  0.05521  0.86130  0.19167  1.0000
  I   I155      1.0  0.10043  0.92278  0.59692  1.0000
  I   I156      1.0  0.13052  0.80440  0.89479  1.0000
  I   I157      1.0  0.45167  0.12198  0.16128  1.0000
  I   I158      1.0  0.44068  0.11276  0.51333  1.0000
  I   I159      1.0  0.45488  0.12947  0.82995  1.0000
  I   I160      1.0  0.33818  0.35733  0.62281  1.0000
  I   I161      1.0  0.27425  0.42076  0.92824  1.0000
  I   I162      1.0  0.30904  0.40141  0.29948  1.0000
  I   I163      1.0  0.28388  0.79407  0.40798  1.0000
  I   I164      1.0  0.33082  0.68039  0.78723  1.0000
  I   I165      1.0  0.25130  0.66905  0.37426  1.0000
  I   I166      1.0  0.32206  0.91612  0.78607  1.0000
  I   I167      1.0  0.49334  0.80338  0.04996  1.0000
  I   I168      1.0  0.47008  0.81611  0.56169  1.0000
  I   I169      1.0  0.65038  0.15395  0.36326  1.0000
  I   I170      1.0  0.67637  0.15482  0.71642  1.0000
  I   I171      1.0  0.62056  0.16648  0.04618  1.0000
  I   I172      1.0  0.58778  0.36524  0.01572  1.0000
  I   I173      1.0  0.68125  0.37466  0.43722  1.0000
  I   I174      1.0  0.65286  0.34486  0.68460  1.0000
  I   I175      1.0  0.61337  0.57335  0.12675  1.0000
  I   I176      1.0  0.67652  0.54977  0.52561  1.0000
  I   I177      1.0  0.68786  0.49243  0.84918  1.0000
  I   I178      1.0  0.70500  0.73836  0.13636  1.0000
  I   I179      1.0  0.70484  0.73591  0.45702  1.0000
  I   I180      1.0  0.72156  0.73220  0.78938  1.0000
  I   I181      1.0  0.82203  0.14813  0.06158  1.0000
  I   I182      1.0  0.85014  0.11640  0.38295  1.0000
  I   I183      1.0  0.83113  0.12725  0.73137  1.0000
  I   I184      1.0  0.96221  0.24297  0.96436  1.0000
  I   I185      1.0  0.00282  0.20770  0.26581  1.0000
  I   I186      1.0  0.03076  0.14791  0.60835  1.0000
  I   I187      1.0  0.90211  0.52621  0.20521  1.0000
  I   I188      1.0  0.91565  0.46913  0.53326  1.0000
  I   I189      1.0  0.90240  0.49034  0.86270  1.0000
  I   I190      1.0  0.72549  0.92125  0.10486  1.0000
  I   I191      1.0  0.74673  0.91130  0.44780  1.0000
  I   I192      1.0  0.72349  0.91137  0.79594  1.0000
  I   I193      1.0  0.40698  0.05885  0.76620  1.0000
  I   I194      1.0  0.19442  0.02451  0.06487  1.0000
  I   I195      1.0  0.34836  0.03479  0.33230  1.0000
  I   I196      1.0  0.26397  0.31616  0.16319  1.0000
  I   I197      1.0  0.26628  0.30715  0.53134  1.0000
  I   I198      1.0  0.27953  0.30122  0.85861  1.0000
  I   I199      1.0  0.15507  0.51577  0.42575  1.0000
  I   I200      1.0  0.97289  0.75546  0.82818  1.0000
  I   I201      1.0  0.06369  0.70603  0.12766  1.0000
  I   I202      1.0  0.06059  0.93465  0.25123  1.0000
  I   I203      1.0  0.15125  0.82463  0.57065  1.0000
  I   I204      1.0  0.17112  0.86326  0.95810  1.0000
  I   I205      1.0  0.53987  0.08590  0.23646  1.0000
  I   I206      1.0  0.55355  0.09280  0.57474  1.0000
  I   I207      1.0  0.54424  0.10135  0.88908  1.0000
  I   I208      1.0  0.38902  0.40823  0.68991  1.0000
  I   I209      1.0  0.33614  0.45472  0.00149  1.0000
  I   I210      1.0  0.36626  0.43990  0.30474  1.0000
  I   I211      1.0  0.33575  0.87934  0.31937  1.0000
  I   I212      1.0  0.42429  0.62021  0.82221  1.0000
  I   I213      1.0  0.33436  0.60927  0.32954  1.0000
  I   I214      1.0  0.23169  0.98915  0.78712  1.0000
  I   I215      1.0  0.49109  0.86875  0.19232  1.0000
  I   I216      1.0  0.46336  0.90331  0.51812  1.0000
  I   I217      1.0  0.71014  0.18932  0.40797  1.0000
  I   I218      1.0  0.71001  0.19257  0.80877  1.0000
  I   I219      1.0  0.69061  0.19209  0.09446  1.0000
  I   I220      1.0  0.63920  0.41015  0.12107  1.0000
  I   I221      1.0  0.71021  0.36876  0.58688  1.0000
  I   I222      1.0  0.67800  0.40158  0.77944  1.0000
  I   I223      1.0  0.65136  0.63141  0.19292  1.0000
  I   I224      1.0  0.76159  0.54885  0.58614  1.0000
  I   I225      1.0  0.75183  0.50254  0.93499  1.0000
  I   I226      1.0  0.74643  0.78831  0.20332  1.0000
  I   I227      1.0  0.75158  0.78196  0.51458  1.0000
  I   I228      1.0  0.75572  0.79593  0.83907  1.0000
  I   I229      1.0  0.89952  0.06282  0.09737  1.0000
  I   I230      1.0  0.93831  0.05552  0.46770  1.0000
  I   I231      1.0  0.92230  0.07398  0.79994  1.0000
  I   I232      1.0  0.04942  0.25864  0.94915  1.0000
  I   I233      1.0  0.08628  0.20365  0.27602  1.0000
  I   I234      1.0  0.07464  0.08522  0.74372  1.0000
  I   I235      1.0  0.99767  0.50623  0.23131  1.0000
  I   I236      1.0  0.00162  0.45956  0.59642  1.0000
  I   I237      1.0  0.98920  0.50238  0.88436  1.0000
  I   I238      1.0  0.80766  0.92947  0.16355  1.0000
  I   I239      1.0  0.78351  0.97277  0.48229  1.0000
  I   I240      1.0  0.80856  0.92563  0.82487  1.0000
  I   I241      1.0  0.34594  0.01969  0.79700  1.0000
  I   I242      1.0  0.25976  0.96725  0.17040  1.0000
  I   I243      1.0  0.35945  0.99288  0.48732  1.0000
  I   I244      1.0  0.25195  0.25243  0.25224  1.0000
  I   I245      1.0  0.23117  0.26539  0.63324  1.0000
  I   I246      1.0  0.24393  0.24093  0.91720  1.0000
  I   I247      1.0  0.05673  0.54053  0.47649  1.0000
  I   I248      1.0  0.96059  0.69814  0.93235  1.0000
  I   I249      1.0  0.08088  0.62115  0.19783  1.0000
  I   I250      1.0  0.05183  0.88722  0.37967  1.0000
  I   I251      1.0  0.05655  0.85955  0.58585  1.0000
  I   I252      1.0  0.14150  0.81842  0.08675  1.0000
  I   I253      1.0  0.48646  0.05008  0.27450  1.0000
  I   I254      1.0  0.50043  0.06778  0.65954  1.0000
  I   I255      1.0  0.48101  0.07992  0.97529  1.0000
  I   I256      1.0  0.35540  0.36140  0.80437  1.0000
  I   I257      1.0  0.28755  0.41313  0.09383  1.0000
  I   I258      1.0  0.41364  0.34940  0.36431  1.0000
  I   I259      1.0  0.37226  0.80548  0.42527  1.0000
  I   I260      1.0  0.43935  0.62674  0.02366  1.0000
  I   I261      1.0  0.32864  0.67396  0.43528  1.0000
  I   I262      1.0  0.23671  0.90435  0.81015  1.0000
  I   I263      1.0  0.42738  0.83568  0.19379  1.0000
  I   I264      1.0  0.47799  0.86745  0.67921  1.0000
  I   I265      1.0  0.72818  0.12562  0.50946  1.0000
  I   I266      1.0  0.68299  0.11523  0.86089  1.0000
  I   I267      1.0  0.67610  0.12185  0.15989  1.0000
  I   I268      1.0  0.63777  0.32939  0.16555  1.0000
  I   I269      1.0  0.70703  0.28872  0.52327  1.0000
  I   I270      1.0  0.66872  0.31772  0.85475  1.0000
  I   I271      1.0  0.60933  0.60656  0.30610  1.0000
  I   I272      1.0  0.75847  0.46908  0.57481  1.0000
  I   I273      1.0  0.69936  0.48939  0.04519  1.0000
  I   I274      1.0  0.74223  0.70074  0.28334  1.0000
  I   I275      1.0  0.75041  0.70159  0.59368  1.0000
  I   I276      1.0  0.77321  0.70002  0.92468  1.0000
  I   I277      1.0  0.81552  0.09972  0.18900  1.0000
  I   I278      1.0  0.83952  0.09533  0.53602  1.0000
  I   I279      1.0  0.83599  0.08571  0.88482  1.0000
  I   I280      1.0  0.04036  0.18389  0.03985  1.0000
  I   I281      1.0  0.08269  0.13578  0.34977  1.0000
  I   I282      1.0  0.10088  0.15419  0.77748  1.0000
  I   I283      1.0  0.97434  0.43730  0.23724  1.0000
  I   I284      1.0  0.94493  0.44212  0.67909  1.0000
  I   I285      1.0  0.95631  0.45423  0.00814  1.0000
  I   I286      1.0  0.79257  0.86897  0.24887  1.0000
  I   I287      1.0  0.81025  0.88629  0.56497  1.0000
  I   I288      1.0  0.78094  0.86901  0.92740  1.0000
  I   I289      1.0  0.27994  0.08080  0.69554  1.0000
  I   I290      1.0  0.06799  0.02083  0.16031  1.0000
  I   I291      1.0  0.18854  0.08559  0.45261  1.0000
  I   I292      1.0  0.09233  0.35465  0.09113  1.0000
  I   I293      1.0  0.07797  0.40005  0.47823  1.0000
  I   I294      1.0  0.10046  0.38336  0.78214  1.0000
  I   I295      1.0  0.04437  0.62677  0.50281  1.0000
  I   I296      1.0  0.85221  0.82458  0.72365  1.0000
  I   I297      1.0  0.89559  0.76954  0.19011  1.0000
  I   I298      1.0  0.97715  0.88069  0.08487  1.0000
  I   I299      1.0  0.88007  0.97970  0.24692  1.0000
  I   I300      1.0  0.04608  0.83870  0.82673  1.0000
  I   I301      1.0  0.38539  0.22572  0.14007  1.0000
  I   I302      1.0  0.38016  0.20367  0.48026  1.0000
  I   I303      1.0  0.38722  0.22722  0.81456  1.0000
  I   I304      1.0  0.25661  0.41913  0.55077  1.0000
  I   I305      1.0  0.19064  0.48132  0.85035  1.0000
  I   I306      1.0  0.19915  0.45859  0.20343  1.0000
  I   I307      1.0  0.27074  0.84119  0.26045  1.0000
  I   I308      1.0  0.27057  0.76034  0.88997  1.0000
  I   I309      1.0  0.28914  0.57338  0.20267  1.0000
  I   I310      1.0  0.29829  0.87959  0.64694  1.0000
  I   I311      1.0  0.44023  0.88905  0.87717  1.0000
  I   I312      1.0  0.38522  0.93244  0.29011  1.0000
  I   I313      1.0  0.55759  0.18709  0.37295  1.0000
  I   I314      1.0  0.57819  0.18641  0.70596  1.0000
  I   I315      1.0  0.52750  0.24588  0.01148  1.0000
  I   I316      1.0  0.49269  0.42873  0.97742  1.0000
  I   I317      1.0  0.46318  0.42440  0.25852  1.0000
  I   I318      1.0  0.55759  0.35424  0.68896  1.0000
  I   I319      1.0  0.53116  0.62377  0.05590  1.0000
  I   I320      1.0  0.50933  0.63128  0.38066  1.0000
  I   I321      1.0  0.60329  0.56724  0.77114  1.0000
  I   I322      1.0  0.59940  0.79621  0.08601  1.0000
  I   I323      1.0  0.62088  0.75760  0.44408  1.0000
  I   I324      1.0  0.61835  0.75246  0.79621  1.0000
  I   I325      1.0  0.80262  0.24568  0.07716  1.0000
  I   I326      1.0  0.81899  0.22405  0.36948  1.0000
  I   I327      1.0  0.78828  0.22144  0.66481  1.0000
  I   I328      1.0  0.90641  0.31786  0.85296  1.0000
  I   I329      1.0  0.92185  0.30204  0.26416  1.0000
  I   I330      1.0  0.96617  0.22982  0.62986  1.0000
  I   I331      1.0  0.83208  0.61717  0.10099  1.0000
  I   I332      1.0  0.84341  0.57017  0.47754  1.0000
  I   I333      1.0  0.81119  0.58845  0.79008  1.0000
  I   I334      1.0  0.63828  0.99806  0.08151  1.0000
  I   I335      1.0  0.64207  0.94449  0.42577  1.0000
  I   I336      1.0  0.64080  0.98057  0.74491  1.0000
  I   I337      1.0  0.24796  0.15651  0.54951  1.0000
  I   I338      1.0  0.09430  0.06846  0.04031  1.0000
  I   I339      1.0  0.17848  0.12338  0.28701  1.0000
  I   I340      1.0  0.13553  0.41040  0.00445  1.0000
  I   I341      1.0  0.11016  0.42079  0.34361  1.0000
  I   I342      1.0  0.12767  0.43438  0.71608  1.0000
  I   I343      1.0  0.05050  0.70166  0.44414  1.0000
  I   I344      1.0  0.93352  0.83327  0.70079  1.0000
  I   I345      1.0  0.92151  0.83188  0.13224  1.0000
  I   I346      1.0  0.98816  0.94312  0.99209  1.0000
  I   I347      1.0  0.88467  0.00226  0.41046  1.0000
  I   I348      1.0  0.05491  0.89946  0.72262  1.0000
  I   I349      1.0  0.44739  0.24206  0.05999  1.0000
  I   I350      1.0  0.43406  0.21600  0.37960  1.0000
  I   I351      1.0  0.46332  0.23822  0.73838  1.0000
  I   I352      1.0  0.29916  0.45638  0.43834  1.0000
  I   I353      1.0  0.22465  0.53380  0.75245  1.0000
  I   I354      1.0  0.18440  0.56219  0.15660  1.0000
  I   I355      1.0  0.28134  0.77110  0.16980  1.0000
  I   I356      1.0  0.26189  0.67990  0.94656  1.0000
  I   I357      1.0  0.27082  0.57539  0.37699  1.0000
  I   I358      1.0  0.36701  0.89096  0.55316  1.0000
  I   I359      1.0  0.52956  0.79940  0.87157  1.0000
  I   I360      1.0  0.46338  0.96587  0.22661  1.0000
  I   I361      1.0  0.55020  0.27528  0.31495  1.0000
  I   I362      1.0  0.56948  0.26590  0.60467  1.0000
  I   I363      1.0  0.56530  0.29646  0.91791  1.0000
  I   I364      1.0  0.53984  0.47846  0.89314  1.0000
  I   I365      1.0  0.47500  0.50338  0.23892  1.0000
  I   I366      1.0  0.52782  0.43797  0.62280  1.0000
  I   I367      1.0  0.57744  0.65463  0.93008  1.0000
  I   I368      1.0  0.48007  0.72933  0.31462  1.0000
  I   I369      1.0  0.66566  0.59797  0.69290  1.0000
  I   I370      1.0  0.63540  0.85268  0.99759  1.0000
  I   I371      1.0  0.58880  0.84737  0.35422  1.0000
  I   I372      1.0  0.58887  0.83211  0.71282  1.0000
  I   I373      1.0  0.86049  0.24112  0.96494  1.0000
  I   I374      1.0  0.90605  0.19156  0.28279  1.0000
  I   I375      1.0  0.88797  0.20295  0.65128  1.0000
  I   I376      1.0  0.98485  0.32926  0.82735  1.0000
  I   I377      1.0  0.96922  0.34330  0.20259  1.0000
  I   I378      1.0  0.00686  0.28061  0.54546  1.0000
  I   I379      1.0  0.87826  0.65735  0.00219  1.0000
  I   I380      1.0  0.92030  0.56352  0.35986  1.0000
  I   I381      1.0  0.87030  0.62394  0.71643  1.0000
  I   I382      1.0  0.68505  0.04666  0.00669  1.0000
  I   I383      1.0  0.65745  0.01361  0.32869  1.0000
  I   I384      1.0  0.67301  0.03015  0.64415  1.0000
