data_image0
_chemical_formula_structural       Ti96I384
_chemical_formula_sum              "Ti96 I384"
_cell_length_a       73.9379
_cell_length_b       73.8706
_cell_length_c       36.1308
_cell_angle_alpha    88.7757
_cell_angle_beta     88.7757
_cell_angle_gamma    62.1586

_space_group_name_H-M_alt    "P 1"
_space_group_IT_number       1

loop_
  _space_group_symop_operation_xyz
  'x, y, z'

loop_
  _atom_site_type_symbol
  _atom_site_label
  _atom_site_symmetry_multiplicity
  _atom_site_fract_x
  _atom_site_fract_y
  _atom_site_fract_z
  _atom_site_occupancy
  Ti  Ti1       1.0  0.74900  0.29094  0.87964  1.0000
  Ti  Ti2       1.0  0.45914  0.68637  0.45279  1.0000
  Ti  Ti3       1.0  0.17705  0.00347  0.20236  1.0000
  Ti  Ti4       1.0  0.08782  0.23351  0.94924  1.0000
  Ti  Ti5       1.0  0.37664  0.91840  0.61032  1.0000
  Ti  Ti6       1.0  0.40099  0.34958  0.47400  1.0000
  Ti  Ti7       1.0  0.56847  0.58669  0.79899  1.0000
  Ti  Ti8       1.0  0.26527  0.62458  0.39149  1.0000
  Ti  Ti9       1.0  0.29486  0.28419  0.62041  1.0000
  Ti  Ti10      1.0  0.60107  0.67739  0.28041  1.0000
  Ti  Ti11      1.0  0.21809  0.11288  0.27467  1.0000
  Ti  Ti12      1.0  0.86614  0.08779  0.78336  1.0000
  Ti  Ti13      1.0  0.86679  0.79050  0.49116  1.0000
  Ti  Ti14      1.0  0.03838  0.25163  0.98069  1.0000
  Ti  Ti15      1.0  0.82748  0.65539  0.63019  1.0000
  Ti  Ti16      1.0  0.15431  0.44433  0.54832  1.0000
  Ti  Ti17      1.0  0.07516  0.10063  0.39768  1.0000
  Ti  Ti18      1.0  0.13544  0.31538  0.74254  1.0000
  Ti  Ti19      1.0  0.06467  0.88309  0.12199  1.0000
  Ti  Ti20      1.0  0.21598  0.63105  0.88743  1.0000
  Ti  Ti21      1.0  0.32651  0.57949  0.36769  1.0000
  Ti  Ti22      1.0  0.94001  0.27746  0.57872  1.0000
  Ti  Ti23      1.0  0.00249  0.97887  0.37422  1.0000
  Ti  Ti24      1.0  0.72124  0.21024  0.29973  1.0000
  Ti  Ti25      1.0  0.56535  0.57115  0.27877  1.0000
  Ti  Ti26      1.0  0.63372  0.98520  0.03423  1.0000
  Ti  Ti27      1.0  0.58721  0.35024  0.39876  1.0000
  Ti  Ti28      1.0  0.30064  0.10034  0.52068  1.0000
  Ti  Ti29      1.0  0.35284  0.74525  0.97579  1.0000
  Ti  Ti30      1.0  0.50328  0.88285  0.39181  1.0000
  Ti  Ti31      1.0  0.19460  0.89531  0.40013  1.0000
  Ti  Ti32      1.0  0.54297  0.72332  0.84561  1.0000
  Ti  Ti33      1.0  0.43656  0.53032  0.03127  1.0000
  Ti  Ti34      1.0  0.57730  0.59768  0.60108  1.0000
  Ti  Ti35      1.0  0.00607  0.57075  0.51123  1.0000
  Ti  Ti36      1.0  0.67485  0.22100  0.40411  1.0000
  Ti  Ti37      1.0  0.88706  0.85582  0.77324  1.0000
  Ti  Ti38      1.0  0.44921  0.13602  0.59977  1.0000
  Ti  Ti39      1.0  0.84673  0.65331  0.93626  1.0000
  Ti  Ti40      1.0  0.56528  0.75732  0.48757  1.0000
  Ti  Ti41      1.0  0.80160  0.45891  0.06847  1.0000
  Ti  Ti42      1.0  0.03445  0.37946  0.14281  1.0000
  Ti  Ti43      1.0  0.80051  0.90736  0.29302  1.0000
  Ti  Ti44      1.0  0.83983  0.40458  0.10357  1.0000
  Ti  Ti45      1.0  0.25520  0.19218  0.38180  1.0000
  Ti  Ti46      1.0  0.48103  0.97009  0.17339  1.0000
  Ti  Ti47      1.0  0.20828  0.94122  0.84669  1.0000
  Ti  Ti48      1.0  0.13555  0.07679  0.93066  1.0000
  Ti  Ti49      1.0  0.82756  0.88096  0.17812  1.0000
  Ti  Ti50      1.0  0.10822  0.18291  0.34887  1.0000
  Ti  Ti51      1.0  0.41438  0.70674  0.54382  1.0000
  Ti  Ti52      1.0  0.85551  0.41582  0.59251  1.0000
  Ti  Ti53      1.0  0.02535  0.80027  0.30017  1.0000
  Ti  Ti54      1.0  0.76344  0.01653  0.63687  1.0000
  Ti  Ti55      1.0  0.56743  0.66866  0.87987  1.0000
  Ti  Ti56      1.0  0.26638  0.01166  0.44303  1.0000
  Ti  Ti57      1.0  0.30000  0.28895  0.54150  1.0000
  Ti  Ti58      1.0  0.39961  0.61626  0.25372  1.0000
  Ti  Ti59      1.0  0.47138  0.38636  0.82966  1.0000
  Ti  Ti60      1.0  0.90161  0.06880  0.72153  1.0000
  Ti  Ti61      1.0  0.80765  0.70140  0.70685  1.0000
  Ti  Ti62      1.0  0.81543  0.76950  0.51741  1.0000
  Ti  Ti63      1.0  0.21732  0.59295  0.00553  1.0000
  Ti  Ti64      1.0  0.14836  0.34748  0.75284  1.0000
  Ti  Ti65      1.0  0.16899  0.76122  0.53159  1.0000
  Ti  Ti66      1.0  0.26347  0.46477  0.49462  1.0000
  Ti  Ti67      1.0  0.06085  0.36349  0.54245  1.0000
  Ti  Ti68      1.0  0.71375  0.07713  0.31735  1.0000
  Ti  Ti69      1.0  0.69746  0.90344  0.15442  1.0000
  Ti  Ti70      1.0  0.08803  0.32881  0.45384  1.0000
  Ti  Ti71      1.0  0.02646  0.92317  0.43398  1.0000
  Ti  Ti72      1.0  0.26756  0.90955  0.86677  1.0000
  Ti  Ti73      1.0  0.62239  0.36104  0.38603  1.0000
  Ti  Ti74      1.0  0.57610  0.53707  0.39323  1.0000
  Ti  Ti75      1.0  0.41676  0.09523  0.87363  1.0000
  Ti  Ti76      1.0  0.35288  0.08460  0.43688  1.0000
  Ti  Ti77      1.0  0.88993  0.66771  0.67445  1.0000
  Ti  Ti78      1.0  0.32573  0.79280  0.01631  1.0000
  Ti  Ti79      1.0  0.55083  0.33551  0.54296  1.0000
  Ti  Ti80      1.0  0.14166  0.22990  0.13294  1.0000
  Ti  Ti81      1.0  0.49567  0.78006  0.79519  1.0000
  Ti  Ti82      1.0  0.94053  0.35728  0.33919  1.0000
  Ti  Ti83      1.0  0.03084  0.55272  0.61544  1.0000
  Ti  Ti84      1.0  0.63767  0.19952  0.42220  1.0000
  Ti  Ti85      1.0  0.88243  0.88681  0.70760  1.0000
  Ti  Ti86      1.0  0.57403  0.48879  0.94759  1.0000
  Ti  Ti87      1.0  0.25550  0.25405  0.38783  1.0000
  Ti  Ti88      1.0  0.79347  0.63427  0.28469  1.0000
  Ti  Ti89      1.0  0.42925  0.42157  0.15840  1.0000
  Ti  Ti90      1.0  0.01179  0.40911  0.24202  1.0000
  Ti  Ti91      1.0  0.18184  0.80644  0.14994  1.0000
  Ti  Ti92      1.0  0.63490  0.84762  0.98215  1.0000
  Ti  Ti93      1.0  0.89323  0.12089  0.40457  1.0000
  Ti  Ti94      1.0  0.07566  0.07763  0.96820  1.0000
  Ti  Ti95      1.0  0.94249  0.55087  0.85969  1.0000
  Ti  Ti96      1.0  0.99631  0.25914  0.63047  1.0000
  I   I1        1.0  0.29045  0.91322  0.81563  1.0000
  I   I2        1.0  0.45680  0.68131  0.53528  1.0000
  I   I3        1.0  0.80333  0.87371  0.12701  1.0000
  I   I4        1.0  0.05901  0.78310  0.26049  1.0000
  I   I5        1.0  0.36841  0.36602  0.50496  1.0000
  I   I6        1.0  0.75376  0.99029  0.60613  1.0000
  I   I7        1.0  0.25326  0.59953  0.42039  1.0000
  I   I8        1.0  0.29588  0.97885  0.41804  1.0000
  I   I9        1.0  0.29406  0.31172  0.47613  1.0000
  I   I10       1.0  0.61166  0.66216  0.34865  1.0000
  I   I11       1.0  0.19303  0.10320  0.30324  1.0000
  I   I12       1.0  0.35665  0.90607  0.56448  1.0000
  I   I13       1.0  0.90260  0.76918  0.53959  1.0000
  I   I14       1.0  0.21555  0.55854  0.00663  1.0000
  I   I15       1.0  0.83214  0.61889  0.62976  1.0000
  I   I16       1.0  0.57204  0.69435  0.23393  1.0000
  I   I17       1.0  0.24035  0.47815  0.43798  1.0000
  I   I18       1.0  0.13937  0.28107  0.71322  1.0000
  I   I19       1.0  0.24402  0.63995  0.91053  1.0000
  I   I20       1.0  0.20913  0.15183  0.29126  1.0000
  I   I21       1.0  0.24768  0.65342  0.43705  1.0000
  I   I22       1.0  0.97680  0.01546  0.40345  1.0000
  I   I23       1.0  0.03653  0.91619  0.51200  1.0000
  I   I24       1.0  0.05637  0.35995  0.61562  1.0000
  I   I25       1.0  0.56963  0.60526  0.26303  1.0000
  I   I26       1.0  0.37735  0.11862  0.85730  1.0000
  I   I27       1.0  0.58864  0.31319  0.40306  1.0000
  I   I28       1.0  0.32617  0.07359  0.47115  1.0000
  I   I29       1.0  0.32590  0.80420  0.94625  1.0000
  I   I30       1.0  0.52579  0.87165  0.45309  1.0000
  I   I31       1.0  0.11448  0.26555  0.10935  1.0000
  I   I32       1.0  0.51903  0.74248  0.77247  1.0000
  I   I33       1.0  0.57048  0.32394  0.60756  1.0000
  I   I34       1.0  0.00388  0.54325  0.46690  1.0000
  I   I35       1.0  0.64011  0.21854  0.35578  1.0000
  I   I36       1.0  0.61270  0.59390  0.59185  1.0000
  I   I37       1.0  0.90384  0.84446  0.70369  1.0000
  I   I38       1.0  0.84007  0.62466  0.91655  1.0000
  I   I39       1.0  0.88971  0.82254  0.79365  1.0000
  I   I40       1.0  0.80727  0.41584  0.04920  1.0000
  I   I41       1.0  0.03231  0.36606  0.22628  1.0000
  I   I42       1.0  0.56144  0.72496  0.50817  1.0000
  I   I43       1.0  0.38431  0.59318  0.27920  1.0000
  I   I44       1.0  0.85231  0.40019  0.17200  1.0000
  I   I45       1.0  0.28625  0.24816  0.42307  1.0000
  I   I46       1.0  0.94614  0.55008  0.78768  1.0000
  I   I47       1.0  0.19780  0.93285  0.91859  1.0000
  I   I48       1.0  0.16686  0.05311  0.89060  1.0000
  I   I49       1.0  0.78061  0.89277  0.24344  1.0000
  I   I50       1.0  0.45538  0.68202  0.38156  1.0000
  I   I51       1.0  0.48034  0.70415  0.46548  1.0000
  I   I52       1.0  0.17562  0.22994  0.11364  1.0000
  I   I53       1.0  0.00127  0.79779  0.35163  1.0000
  I   I54       1.0  0.73438  0.05125  0.61846  1.0000
  I   I55       1.0  0.56862  0.58766  0.87409  1.0000
  I   I56       1.0  0.35187  0.56491  0.31022  1.0000
  I   I57       1.0  0.90511  0.55721  0.85516  1.0000
  I   I58       1.0  0.61171  0.70541  0.27306  1.0000
  I   I59       1.0  0.46007  0.35930  0.80898  1.0000
  I   I60       1.0  0.89231  0.09458  0.65550  1.0000
  I   I61       1.0  0.82022  0.73733  0.54892  1.0000
  I   I62       1.0  0.82128  0.78105  0.58302  1.0000
  I   I63       1.0  0.20269  0.62675  0.96736  1.0000
  I   I64       1.0  0.17635  0.43159  0.49184  1.0000
  I   I65       1.0  0.15728  0.78409  0.58900  1.0000
  I   I66       1.0  0.24664  0.44821  0.53946  1.0000
  I   I67       1.0  0.09911  0.87026  0.08909  1.0000
  I   I68       1.0  0.21969  0.62452  0.81834  1.0000
  I   I69       1.0  0.70693  0.86774  0.19141  1.0000
  I   I70       1.0  0.09607  0.35697  0.41831  1.0000
  I   I71       1.0  0.98771  0.95260  0.42611  1.0000
  I   I72       1.0  0.23814  0.91002  0.81849  1.0000
  I   I73       1.0  0.61562  0.33018  0.34549  1.0000
  I   I74       1.0  0.65412  0.00179  0.06461  1.0000
  I   I75       1.0  0.61393  0.97399  0.07754  1.0000
  I   I76       1.0  0.91633  0.68172  0.65860  1.0000
  I   I77       1.0  0.85498  0.70283  0.68543  1.0000
  I   I78       1.0  0.77444  0.29979  0.91757  1.0000
  I   I79       1.0  0.43803  0.49894  0.98605  1.0000
  I   I80       1.0  0.17881  0.90674  0.33350  1.0000
  I   I81       1.0  0.50210  0.75328  0.86221  1.0000
  I   I82       1.0  0.94318  0.33378  0.27395  1.0000
  I   I83       1.0  0.03245  0.57402  0.67297  1.0000
  I   I84       1.0  0.66973  0.16421  0.42429  1.0000
  I   I85       1.0  0.85447  0.87046  0.72193  1.0000
  I   I86       1.0  0.29933  0.44957  0.46201  1.0000
  I   I87       1.0  0.86476  0.65780  0.87996  1.0000
  I   I88       1.0  0.60050  0.74841  0.46746  1.0000
  I   I89       1.0  0.79558  0.45075  0.14175  1.0000
  I   I90       1.0  0.97908  0.44205  0.24774  1.0000
  I   I91       1.0  0.15735  0.80279  0.10323  1.0000
  I   I92       1.0  0.64632  0.86653  0.93654  1.0000
  I   I93       1.0  0.86783  0.37805  0.06198  1.0000
  I   I94       1.0  0.06239  0.05070  0.97729  1.0000
  I   I95       1.0  0.50250  0.95174  0.23742  1.0000
  I   I96       1.0  0.01655  0.26536  0.67772  1.0000
  I   I97       1.0  0.19352  0.99695  0.26740  1.0000
  I   I98       1.0  0.71031  0.31010  0.89364  1.0000
  I   I99       1.0  0.41308  0.67212  0.50955  1.0000
  I   I100      1.0  0.06340  0.25405  0.01964  1.0000
  I   I101      1.0  0.77637  0.65272  0.22559  1.0000
  I   I102      1.0  0.41169  0.89048  0.59337  1.0000
  I   I103      1.0  0.54233  0.62487  0.78442  1.0000
  I   I104      1.0  0.58810  0.65579  0.94154  1.0000
  I   I105      1.0  0.31644  0.25909  0.67057  1.0000
  I   I106      1.0  0.93238  0.03290  0.70212  1.0000
  I   I107      1.0  0.62972  0.64233  0.24490  1.0000
  I   I108      1.0  0.83790  0.10699  0.83884  1.0000
  I   I109      1.0  0.82029  0.65891  0.71404  1.0000
  I   I110      1.0  0.78002  0.78833  0.49442  1.0000
  I   I111      1.0  0.25612  0.58038  0.02514  1.0000
  I   I112      1.0  0.16842  0.35777  0.79486  1.0000
  I   I113      1.0  0.19455  0.76660  0.48468  1.0000
  I   I114      1.0  0.11233  0.09369  0.38873  1.0000
  I   I115      1.0  0.05228  0.40102  0.54977  1.0000
  I   I116      1.0  0.11621  0.30257  0.41322  1.0000
  I   I117      1.0  0.68595  0.08416  0.37432  1.0000
  I   I118      1.0  0.92395  0.31657  0.59770  1.0000
  I   I119      1.0  0.05822  0.32699  0.41366  1.0000
  I   I120      1.0  0.24273  0.94214  0.89809  1.0000
  I   I121      1.0  0.63055  0.39030  0.41506  1.0000
  I   I122      1.0  0.59482  0.55135  0.23512  1.0000
  I   I123      1.0  0.44448  0.09424  0.82621  1.0000
  I   I124      1.0  0.51106  0.90839  0.34546  1.0000
  I   I125      1.0  0.26957  0.09796  0.50473  1.0000
  I   I126      1.0  0.31263  0.76726  0.97724  1.0000
  I   I127      1.0  0.46747  0.52473  0.07348  1.0000
  I   I128      1.0  0.05043  0.24802  0.90626  1.0000
  I   I129      1.0  0.49153  0.80276  0.73455  1.0000
  I   I130      1.0  0.73884  0.20730  0.36624  1.0000
  I   I131      1.0  0.93276  0.32938  0.37417  1.0000
  I   I132      1.0  0.01019  0.53826  0.55510  1.0000
  I   I133      1.0  0.87908  0.64075  0.97839  1.0000
  I   I134      1.0  0.44672  0.16730  0.54795  1.0000
  I   I135      1.0  0.26153  0.49542  0.52821  1.0000
  I   I136      1.0  0.03785  0.42335  0.25571  1.0000
  I   I137      1.0  0.82315  0.43753  0.63421  1.0000
  I   I138      1.0  0.40499  0.42912  0.22021  1.0000
  I   I139      1.0  0.16625  0.84143  0.18610  1.0000
  I   I140      1.0  0.61869  0.82580  0.94713  1.0000
  I   I141      1.0  0.87605  0.16023  0.41392  1.0000
  I   I142      1.0  0.09754  0.09978  0.96931  1.0000
  I   I143      1.0  0.20395  0.99473  0.14644  1.0000
  I   I144      1.0  0.99239  0.28281  0.57094  1.0000
  I   I145      1.0  0.75387  0.25957  0.92148  1.0000
  I   I146      1.0  0.48500  0.64507  0.45361  1.0000
  I   I147      1.0  0.14202  0.03345  0.18664  1.0000
  I   I148      1.0  0.87628  0.37589  0.58442  1.0000
  I   I149      1.0  0.34312  0.94273  0.65216  1.0000
  I   I150      1.0  0.43288  0.34426  0.50692  1.0000
  I   I151      1.0  0.54215  0.65981  0.91406  1.0000
  I   I152      1.0  0.30437  0.61066  0.33224  1.0000
  I   I153      1.0  0.32913  0.28440  0.59131  1.0000
  I   I154      1.0  0.84800  0.88195  0.24364  1.0000
  I   I155      1.0  0.21465  0.11163  0.19782  1.0000
  I   I156      1.0  0.85967  0.05660  0.81085  1.0000
  I   I157      1.0  0.84303  0.65837  0.56512  1.0000
  I   I158      1.0  0.21133  0.60273  0.07652  1.0000
  I   I159      1.0  0.78789  0.74012  0.67837  1.0000
  I   I160      1.0  0.16532  0.31794  0.70366  1.0000
  I   I161      1.0  0.06724  0.07174  0.42147  1.0000
  I   I162      1.0  0.16210  0.30633  0.79787  1.0000
  I   I163      1.0  0.03889  0.91093  0.07822  1.0000
  I   I164      1.0  0.74716  0.04954  0.28570  1.0000
  I   I165      1.0  0.36126  0.57546  0.39850  1.0000
  I   I166      1.0  0.93106  0.28465  0.51173  1.0000
  I   I167      1.0  0.96420  0.99112  0.33870  1.0000
  I   I168      1.0  0.75142  0.17139  0.28110  1.0000
  I   I169      1.0  0.58673  0.56251  0.35119  1.0000
  I   I170      1.0  0.59429  0.53623  0.45197  1.0000
  I   I171      1.0  0.55325  0.36431  0.36037  1.0000
  I   I172      1.0  0.27977  0.13682  0.54261  1.0000
  I   I173      1.0  0.39271  0.73193  0.98512  1.0000
  I   I174      1.0  0.51018  0.84382  0.38861  1.0000
  I   I175      1.0  0.23002  0.86567  0.37084  1.0000
  I   I176      1.0  0.52430  0.69692  0.83317  1.0000
  I   I177      1.0  0.51445  0.33654  0.55158  1.0000
  I   I178      1.0  0.98092  0.33885  0.32426  1.0000
  I   I179      1.0  0.00953  0.59069  0.58460  1.0000
  I   I180      1.0  0.60881  0.18884  0.39321  1.0000
  I   I181      1.0  0.89395  0.89008  0.64405  1.0000
  I   I182      1.0  0.57110  0.49047  0.87283  1.0000
  I   I183      1.0  0.22092  0.20414  0.34397  1.0000
  I   I184      1.0  0.76672  0.64993  0.33815  1.0000
  I   I185      1.0  0.45088  0.43823  0.16318  1.0000
  I   I186      1.0  0.03301  0.35186  0.09427  1.0000
  I   I187      1.0  0.66777  0.82524  0.02090  1.0000
  I   I188      1.0  0.82016  0.38131  0.11946  1.0000
  I   I189      1.0  0.24229  0.23139  0.42799  1.0000
  I   I190      1.0  0.44570  0.00762  0.18772  1.0000
  I   I191      1.0  0.11674  0.15464  0.39976  1.0000
  I   I192      1.0  0.10117  0.06038  0.02888  1.0000
  I   I193      1.0  0.36319  0.70699  0.99565  1.0000
  I   I194      1.0  0.11506  0.16725  0.28388  1.0000
  I   I195      1.0  0.17520  0.96815  0.20642  1.0000
  I   I196      1.0  0.10928  0.21907  0.88978  1.0000
  I   I197      1.0  0.38008  0.62346  0.18929  1.0000
  I   I198      1.0  0.41152  0.31225  0.46143  1.0000
  I   I199      1.0  0.57248  0.70537  0.90855  1.0000
  I   I200      1.0  0.28545  0.03297  0.46677  1.0000
  I   I201      1.0  0.26237  0.29605  0.67198  1.0000
  I   I202      1.0  0.49955  0.39066  0.78914  1.0000
  I   I203      1.0  0.66716  0.92808  0.20246  1.0000
  I   I204      1.0  0.90278  0.10229  0.74415  1.0000
  I   I205      1.0  0.82146  0.80268  0.47865  1.0000
  I   I206      1.0  0.01656  0.23434  0.01664  1.0000
  I   I207      1.0  0.86393  0.65175  0.65772  1.0000
  I   I208      1.0  0.12875  0.48368  0.53708  1.0000
  I   I209      1.0  0.07362  0.09728  0.32676  1.0000
  I   I210      1.0  0.53398  0.35591  0.47293  1.0000
  I   I211      1.0  0.07755  0.31499  0.51150  1.0000
  I   I212      1.0  0.17919  0.66310  0.87368  1.0000
  I   I213      1.0  0.69070  0.88988  0.09229  1.0000
  I   I214      1.0  0.97977  0.24470  0.57402  1.0000
  I   I215      1.0  0.02601  0.99259  0.33344  1.0000
  I   I216      1.0  0.72431  0.22866  0.24096  1.0000
  I   I217      1.0  0.53453  0.57922  0.23459  1.0000
  I   I218      1.0  0.42885  0.06260  0.91168  1.0000
  I   I219      1.0  0.62289  0.33335  0.44430  1.0000
  I   I220      1.0  0.90173  0.64835  0.74102  1.0000
  I   I221      1.0  0.34294  0.81714  0.02883  1.0000
  I   I222      1.0  0.33136  0.11537  0.49074  1.0000
  I   I223      1.0  0.21304  0.91554  0.41623  1.0000
  I   I224      1.0  0.55698  0.74692  0.83897  1.0000
  I   I225      1.0  0.43645  0.56014  0.99018  1.0000
  I   I226      1.0  0.90599  0.39215  0.32588  1.0000
  I   I227      1.0  0.96780  0.59927  0.52435  1.0000
  I   I228      1.0  0.64455  0.23587  0.44812  1.0000
  I   I229      1.0  0.05010  0.13887  0.41981  1.0000
  I   I230      1.0  0.42882  0.15741  0.65672  1.0000
  I   I231      1.0  0.81083  0.68221  0.95816  1.0000
  I   I232      1.0  0.00345  0.27968  0.96052  1.0000
  I   I233      1.0  0.77931  0.47176  0.01378  1.0000
  I   I234      1.0  0.06909  0.38029  0.15377  1.0000
  I   I235      1.0  0.81909  0.92220  0.32714  1.0000
  I   I236      1.0  0.88054  0.11203  0.34138  1.0000
  I   I237      1.0  0.21840  0.79187  0.11644  1.0000
  I   I238      1.0  0.95431  0.51656  0.89788  1.0000
  I   I239      1.0  0.03077  0.22095  0.62406  1.0000
  I   I240      1.0  0.16384  0.06776  0.98173  1.0000
  I   I241      1.0  0.76981  0.27758  0.81614  1.0000
  I   I242      1.0  0.37730  0.73497  0.52751  1.0000
  I   I243      1.0  0.51410  0.96218  0.13201  1.0000
  I   I244      1.0  0.82186  0.64522  0.29314  1.0000
  I   I245      1.0  0.01563  0.83932  0.30066  1.0000
  I   I246      1.0  0.39871  0.36642  0.40724  1.0000
  I   I247      1.0  0.60760  0.58078  0.78550  1.0000
  I   I248      1.0  0.24408  0.63168  0.32619  1.0000
  I   I249      1.0  0.26619  0.32242  0.58481  1.0000
  I   I250      1.0  0.43697  0.41645  0.86062  1.0000
  I   I251      1.0  0.25782  0.09389  0.23939  1.0000
  I   I252      1.0  0.84042  0.12018  0.73261  1.0000
  I   I253      1.0  0.86921  0.82330  0.51810  1.0000
  I   I254      1.0  0.11422  0.20261  0.99275  1.0000
  I   I255      1.0  0.82690  0.71348  0.75772  1.0000
  I   I256      1.0  0.13148  0.78806  0.49969  1.0000
  I   I257      1.0  0.88169  0.91984  0.73258  1.0000
  I   I258      1.0  0.11014  0.34728  0.69534  1.0000
  I   I259      1.0  0.10301  0.34679  0.51945  1.0000
  I   I260      1.0  0.72165  0.10600  0.29493  1.0000
  I   I261      1.0  0.31656  0.55094  0.35208  1.0000
  I   I262      1.0  0.92177  0.25475  0.58173  1.0000
  I   I263      1.0  0.02332  0.93472  0.35599  1.0000
  I   I264      1.0  0.70682  0.18816  0.36139  1.0000
  I   I265      1.0  0.55467  0.54698  0.31610  1.0000
  I   I266      1.0  0.66465  0.95017  0.02288  1.0000
  I   I267      1.0  0.66064  0.33775  0.35860  1.0000
  I   I268      1.0  0.30160  0.08164  0.58716  1.0000
  I   I269      1.0  0.29164  0.81245  0.04514  1.0000
  I   I270      1.0  0.33798  0.10739  0.38394  1.0000
  I   I271      1.0  0.19514  0.88440  0.46533  1.0000
  I   I272      1.0  0.51275  0.79927  0.83264  1.0000
  I   I273      1.0  0.40304  0.55137  0.07852  1.0000
  I   I274      1.0  0.57930  0.57619  0.65783  1.0000
  I   I275      1.0  0.01845  0.58862  0.45661  1.0000
  I   I276      1.0  0.62243  0.20060  0.48848  1.0000
  I   I277      1.0  0.93305  0.37636  0.40034  1.0000
  I   I278      1.0  0.48349  0.13462  0.61481  1.0000
  I   I279      1.0  0.25344  0.18365  0.44742  1.0000
  I   I280      1.0  0.84066  0.43030  0.53236  1.0000
  I   I281      1.0  0.81066  0.49091  0.08159  1.0000
  I   I282      1.0  0.01226  0.41587  0.16074  1.0000
  I   I283      1.0  0.77380  0.94534  0.27011  1.0000
  I   I284      1.0  0.93211  0.08554  0.41158  1.0000
  I   I285      1.0  0.27579  0.15648  0.34771  1.0000
  I   I286      1.0  0.96936  0.56508  0.85566  1.0000
  I   I287      1.0  0.17687  0.94002  0.81738  1.0000
  I   I288      1.0  0.12239  0.11536  0.90136  1.0000
  I   I289      1.0  0.81972  0.91280  0.13894  1.0000
  I   I290      1.0  0.07099  0.19646  0.36417  1.0000
  I   I291      1.0  0.41012  0.70647  0.61289  1.0000
  I   I292      1.0  0.88454  0.42686  0.60558  1.0000
  I   I293      1.0  0.00178  0.80002  0.24681  1.0000
  I   I294      1.0  0.79425  0.00299  0.58714  1.0000
  I   I295      1.0  0.56647  0.55761  0.76457  1.0000
  I   I296      1.0  0.25587  0.02867  0.37833  1.0000
  I   I297      1.0  0.27308  0.27097  0.58260  1.0000
  I   I298      1.0  0.43715  0.59049  0.23980  1.0000
  I   I299      1.0  0.13399  0.42463  0.56332  1.0000
  I   I300      1.0  0.89527  0.11345  0.48644  1.0000
  I   I301      1.0  0.79887  0.69184  0.62006  1.0000
  I   I302      1.0  0.88220  0.78468  0.42404  1.0000
  I   I303      1.0  0.54724  0.77518  0.42769  1.0000
  I   I304      1.0  0.14005  0.37449  0.70571  1.0000
  I   I305      1.0  0.18382  0.44945  0.58425  1.0000
  I   I306      1.0  0.60937  0.47349  0.97059  1.0000
  I   I307      1.0  0.05146  0.85636  0.11489  1.0000
  I   I308      1.0  0.22579  0.59244  0.88976  1.0000
  I   I309      1.0  0.30056  0.59607  0.43659  1.0000
  I   I310      1.0  0.79015  0.89968  0.36200  1.0000
  I   I311      1.0  0.03357  0.95620  0.42500  1.0000
  I   I312      1.0  0.30035  0.89532  0.91062  1.0000
  I   I313      1.0  0.61031  0.38363  0.32656  1.0000
  I   I314      1.0  0.53803  0.54676  0.41941  1.0000
  I   I315      1.0  0.41825  0.11475  0.93281  1.0000
  I   I316      1.0  0.37596  0.04961  0.40887  1.0000
  I   I317      1.0  0.38262  0.09454  0.44726  1.0000
  I   I318      1.0  0.35153  0.75761  0.06047  1.0000
  I   I319      1.0  0.56484  0.36392  0.53962  1.0000
  I   I320      1.0  0.10340  0.25729  0.94877  1.0000
  I   I321      1.0  0.56982  0.68824  0.79220  1.0000
  I   I322      1.0  0.57423  0.57409  0.55043  1.0000
  I   I323      1.0  0.99927  0.55149  0.65156  1.0000
  I   I324      1.0  0.66762  0.25902  0.39209  1.0000
  I   I325      1.0  0.87856  0.86680  0.84772  1.0000
  I   I326      1.0  0.56063  0.52691  0.95956  1.0000
  I   I327      1.0  0.25631  0.27924  0.33465  1.0000
  I   I328      1.0  0.55870  0.78429  0.54294  1.0000
  I   I329      1.0  0.40746  0.44701  0.10695  1.0000
  I   I330      1.0  0.01057  0.39652  0.31102  1.0000
  I   I331      1.0  0.26329  0.22021  0.33387  1.0000
  I   I332      1.0  0.39218  0.65368  0.26335  1.0000
  I   I333      1.0  0.84276  0.43516  0.04435  1.0000
  I   I334      1.0  0.10802  0.05176  0.92253  1.0000
  I   I335      1.0  0.46966  0.94217  0.15845  1.0000
  I   I336      1.0  0.95745  0.27431  0.65019  1.0000
  I   I337      1.0  0.85880  0.85081  0.15044  1.0000
  I   I338      1.0  0.11794  0.20868  0.37177  1.0000
  I   I339      1.0  0.42196  0.71562  0.46616  1.0000
  I   I340      1.0  0.13649  0.24143  0.20183  1.0000
  I   I341      1.0  0.37819  0.94882  0.57612  1.0000
  I   I342      1.0  0.77733  0.00805  0.70732  1.0000
  I   I343      1.0  0.60002  0.64295  0.83819  1.0000
  I   I344      1.0  0.23755  0.00386  0.45784  1.0000
  I   I345      1.0  0.31794  0.26186  0.49355  1.0000
  I   I346      1.0  0.02558  0.37000  0.51494  1.0000
  I   I347      1.0  0.48710  0.37191  0.89626  1.0000
  I   I348      1.0  0.86766  0.06549  0.71939  1.0000
  I   I349      1.0  0.77379  0.70986  0.74074  1.0000
  I   I350      1.0  0.85647  0.75944  0.49730  1.0000
  I   I351      1.0  0.06381  0.20796  0.96364  1.0000
  I   I352      1.0  0.10821  0.36247  0.78263  1.0000
  I   I353      1.0  0.18562  0.72586  0.56276  1.0000
  I   I354      1.0  0.54466  0.47945  0.95309  1.0000
  I   I355      1.0  0.05980  0.90859  0.17574  1.0000
  I   I356      1.0  0.68869  0.07236  0.26950  1.0000
  I   I357      1.0  0.60262  0.01100  0.99153  1.0000
  I   I358      1.0  0.68436  0.23788  0.30418  1.0000
  I   I359      1.0  0.04936  0.88137  0.42540  1.0000
  I   I360      1.0  0.26538  0.87821  0.90566  1.0000
  I   I361      1.0  0.57382  0.39311  0.40902  1.0000
  I   I362      1.0  0.58671  0.49786  0.37700  1.0000
  I   I363      1.0  0.72745  0.91079  0.15649  1.0000
  I   I364      1.0  0.46687  0.90288  0.42018  1.0000
  I   I365      1.0  0.91692  0.63872  0.63164  1.0000
  I   I366      1.0  0.35639  0.75284  0.90413  1.0000
  I   I367      1.0  0.56573  0.29594  0.52743  1.0000
  I   I368      1.0  0.13553  0.19792  0.12458  1.0000
  I   I369      1.0  0.45369  0.79585  0.80352  1.0000
  I   I370      1.0  0.54229  0.63300  0.59119  1.0000
  I   I371      1.0  0.06382  0.52468  0.63653  1.0000
  I   I372      1.0  0.70140  0.19968  0.45343  1.0000
  I   I373      1.0  0.91594  0.87282  0.76955  1.0000
  I   I374      1.0  0.43949  0.11459  0.54547  1.0000
  I   I375      1.0  0.22340  0.28483  0.41382  1.0000
  I   I376      1.0  0.81512  0.59179  0.27783  1.0000
  I   I377      1.0  0.44355  0.38748  0.11929  1.0000
  I   I378      1.0  0.02471  0.40148  0.07664  1.0000
  I   I379      1.0  0.18634  0.78106  0.20487  1.0000
  I   I380      1.0  0.60974  0.87153  0.02722  1.0000
  I   I381      1.0  0.91030  0.05792  0.79016  1.0000
  I   I382      1.0  0.04339  0.10541  0.92123  1.0000
  I   I383      1.0  0.92110  0.59495  0.84149  1.0000
  I   I384      1.0  0.21456  0.96855  0.80788  1.0000
