data_image0
_chemical_formula_structural       Ti96I384
_chemical_formula_sum              "Ti96 I384"
_cell_length_a       76.8495
_cell_length_b       76.9191
_cell_length_c       37.6068
_cell_angle_alpha    88.7757
_cell_angle_beta     88.7757
_cell_angle_gamma    62.1586

_space_group_name_H-M_alt    "P 1"
_space_group_IT_number       1

loop_
  _space_group_symop_operation_xyz
  'x, y, z'

loop_
  _atom_site_type_symbol
  _atom_site_label
  _atom_site_symmetry_multiplicity
  _atom_site_fract_x
  _atom_site_fract_y
  _atom_site_fract_z
  _atom_site_occupancy
  Ti  Ti1       1.0  0.97295  0.75792  0.52395  1.0000
  Ti  Ti2       1.0  0.53298  0.77233  0.71202  1.0000
  Ti  Ti3       1.0  0.06756  0.20737  0.54178  1.0000
  Ti  Ti4       1.0  0.19572  0.18311  0.84231  1.0000
  Ti  Ti5       1.0  0.45117  0.03664  0.57300  1.0000
  Ti  Ti6       1.0  0.60606  0.57112  0.15875  1.0000
  Ti  Ti7       1.0  0.80232  0.83402  0.20177  1.0000
  Ti  Ti8       1.0  0.07354  0.06428  0.59429  1.0000
  Ti  Ti9       1.0  0.07569  0.45174  0.73601  1.0000
  Ti  Ti10      1.0  0.66472  0.59625  0.49425  1.0000
  Ti  Ti11      1.0  0.02385  0.98484  0.98696  1.0000
  Ti  Ti12      1.0  0.68067  0.87403  0.32824  1.0000
  Ti  Ti13      1.0  0.97485  0.55939  0.84093  1.0000
  Ti  Ti14      1.0  0.24841  0.18254  0.81515  1.0000
  Ti  Ti15      1.0  0.88197  0.24825  0.30170  1.0000
  Ti  Ti16      1.0  0.13521  0.93870  0.76116  1.0000
  Ti  Ti17      1.0  0.34779  0.45207  0.40037  1.0000
  Ti  Ti18      1.0  0.74801  0.18706  0.85748  1.0000
  Ti  Ti19      1.0  0.50899  0.30395  0.80541  1.0000
  Ti  Ti20      1.0  0.04682  0.74173  0.76247  1.0000
  Ti  Ti21      1.0  0.09297  0.05018  0.71061  1.0000
  Ti  Ti22      1.0  0.54769  0.47341  0.53163  1.0000
  Ti  Ti23      1.0  0.23345  0.47920  0.59775  1.0000
  Ti  Ti24      1.0  0.52846  0.28233  0.46428  1.0000
  Ti  Ti25      1.0  0.75400  0.38796  0.13256  1.0000
  Ti  Ti26      1.0  0.12041  0.74162  0.41879  1.0000
  Ti  Ti27      1.0  0.72271  0.82215  0.94150  1.0000
  Ti  Ti28      1.0  0.38581  0.97957  0.04992  1.0000
  Ti  Ti29      1.0  0.96867  0.98979  0.66605  1.0000
  Ti  Ti30      1.0  0.16933  0.25654  0.18976  1.0000
  Ti  Ti31      1.0  0.81716  0.20488  0.25232  1.0000
  Ti  Ti32      1.0  0.47740  0.69779  0.22298  1.0000
  Ti  Ti33      1.0  0.54487  0.30567  0.11968  1.0000
  Ti  Ti34      1.0  0.69475  0.43626  0.60707  1.0000
  Ti  Ti35      1.0  0.66958  0.83222  0.00675  1.0000
  Ti  Ti36      1.0  0.33800  0.20559  0.52219  1.0000
  Ti  Ti37      1.0  0.27901  0.30172  0.71026  1.0000
  Ti  Ti38      1.0  0.41427  0.35260  0.87098  1.0000
  Ti  Ti39      1.0  0.87115  0.40762  0.55968  1.0000
  Ti  Ti40      1.0  0.64761  0.65110  0.52972  1.0000
  Ti  Ti41      1.0  0.94647  0.69271  0.98829  1.0000
  Ti  Ti42      1.0  0.88092  0.68403  0.50205  1.0000
  Ti  Ti43      1.0  0.11983  0.84127  0.29141  1.0000
  Ti  Ti44      1.0  0.91229  0.27873  0.60222  1.0000
  Ti  Ti45      1.0  0.83660  0.54562  0.33533  1.0000
  Ti  Ti46      1.0  0.82493  0.39839  0.94055  1.0000
  Ti  Ti47      1.0  0.86884  0.06917  0.91052  1.0000
  Ti  Ti48      1.0  0.94279  0.97292  0.45775  1.0000
  Ti  Ti49      1.0  0.12715  0.86015  0.19688  1.0000
  Ti  Ti50      1.0  0.01211  0.51402  0.02644  1.0000
  Ti  Ti51      1.0  0.53977  0.77395  0.61438  1.0000
  Ti  Ti52      1.0  0.42443  0.50417  0.40779  1.0000
  Ti  Ti53      1.0  0.37260  0.68177  0.66540  1.0000
  Ti  Ti54      1.0  0.36113  0.85845  0.81879  1.0000
  Ti  Ti55      1.0  0.57088  0.67069  0.82282  1.0000
  Ti  Ti56      1.0  0.78997  0.98411  0.79100  1.0000
  Ti  Ti57      1.0  0.05083  0.43358  0.70861  1.0000
  Ti  Ti58      1.0  0.42768  0.21430  0.28069  1.0000
  Ti  Ti59      1.0  0.13863  0.90967  0.81511  1.0000
  Ti  Ti60      1.0  0.86118  0.18713  0.98744  1.0000
  Ti  Ti61      1.0  0.58925  0.14556  0.27682  1.0000
  Ti  Ti62      1.0  0.94745  0.55113  0.76626  1.0000
  Ti  Ti63      1.0  0.03100  0.71757  0.71160  1.0000
  Ti  Ti64      1.0  0.74143  0.19462  0.93533  1.0000
  Ti  Ti65      1.0  0.21133  0.41981  0.85859  1.0000
  Ti  Ti66      1.0  0.39584  0.99390  0.14223  1.0000
  Ti  Ti67      1.0  0.29604  0.36334  0.17195  1.0000
  Ti  Ti68      1.0  0.82543  0.08836  0.44414  1.0000
  Ti  Ti69      1.0  0.07396  0.74742  0.49061  1.0000
  Ti  Ti70      1.0  0.22817  0.00379  0.52005  1.0000
  Ti  Ti71      1.0  0.21512  0.64214  0.34423  1.0000
  Ti  Ti72      1.0  0.87023  0.04061  0.84990  1.0000
  Ti  Ti73      1.0  0.64011  0.36089  0.34173  1.0000
  Ti  Ti74      1.0  0.69872  0.43529  0.15706  1.0000
  Ti  Ti75      1.0  0.89664  0.71633  0.26351  1.0000
  Ti  Ti76      1.0  0.65839  0.03937  0.40141  1.0000
  Ti  Ti77      1.0  0.91609  0.23913  0.21614  1.0000
  Ti  Ti78      1.0  0.97203  0.03119  0.67918  1.0000
  Ti  Ti79      1.0  0.45709  0.89178  0.38563  1.0000
  Ti  Ti80      1.0  0.75242  0.73489  0.58599  1.0000
  Ti  Ti81      1.0  0.18356  0.49370  0.53563  1.0000
  Ti  Ti82      1.0  0.68904  0.55759  0.66582  1.0000
  Ti  Ti83      1.0  0.84779  0.54794  0.22049  1.0000
  Ti  Ti84      1.0  0.28862  0.26865  0.49220  1.0000
  Ti  Ti85      1.0  0.24930  0.31976  0.67085  1.0000
  Ti  Ti86      1.0  0.77825  0.80986  0.16091  1.0000
  Ti  Ti87      1.0  0.67909  0.69834  0.41432  1.0000
  Ti  Ti88      1.0  0.11213  0.84264  0.64192  1.0000
  Ti  Ti89      1.0  0.97840  0.57526  0.51964  1.0000
  Ti  Ti90      1.0  0.20345  0.28299  0.97043  1.0000
  Ti  Ti91      1.0  0.71855  0.22899  0.64391  1.0000
  Ti  Ti92      1.0  0.31691  0.58628  0.16862  1.0000
  Ti  Ti93      1.0  0.34425  0.56050  0.73037  1.0000
  Ti  Ti94      1.0  0.92537  0.97187  0.52218  1.0000
  Ti  Ti95      1.0  0.50039  0.13457  0.75544  1.0000
  Ti  Ti96      1.0  0.49714  0.47131  0.56757  1.0000
  I   I1        1.0  0.85196  0.05029  0.78839  1.0000
  I   I2        1.0  0.56060  0.78445  0.65811  1.0000
  I   I3        1.0  0.10976  0.89946  0.17566  1.0000
  I   I4        1.0  0.34076  0.68589  0.68882  1.0000
  I   I5        1.0  0.57190  0.58603  0.12172  1.0000
  I   I6        1.0  0.34461  0.83914  0.78614  1.0000
  I   I7        1.0  0.11120  0.06584  0.74128  1.0000
  I   I8        1.0  0.75227  0.00168  0.81446  1.0000
  I   I9        1.0  0.03696  0.48122  0.73356  1.0000
  I   I10       1.0  0.61141  0.67861  0.51875  1.0000
  I   I11       1.0  0.04765  0.98331  0.03925  1.0000
  I   I12       1.0  0.45454  0.05588  0.62534  1.0000
  I   I13       1.0  0.97126  0.51206  0.76063  1.0000
  I   I14       1.0  0.05331  0.72546  0.66543  1.0000
  I   I15       1.0  0.88182  0.23120  0.22624  1.0000
  I   I16       1.0  0.64479  0.65500  0.60231  1.0000
  I   I17       1.0  0.37332  0.02168  0.09022  1.0000
  I   I18       1.0  0.74552  0.16935  0.98269  1.0000
  I   I19       1.0  0.07393  0.70774  0.73554  1.0000
  I   I20       1.0  0.04294  0.96081  0.92991  1.0000
  I   I21       1.0  0.10398  0.03510  0.55939  1.0000
  I   I22       1.0  0.26033  0.45356  0.54579  1.0000
  I   I23       1.0  0.15095  0.82282  0.62795  1.0000
  I   I24       1.0  0.19724  0.03113  0.50232  1.0000
  I   I25       1.0  0.76903  0.39735  0.07522  1.0000
  I   I26       1.0  0.90846  0.69608  0.20518  1.0000
  I   I27       1.0  0.69479  0.80970  0.93646  1.0000
  I   I28       1.0  0.34741  0.99262  0.04913  1.0000
  I   I29       1.0  0.93712  0.02692  0.71382  1.0000
  I   I30       1.0  0.15678  0.27777  0.12890  1.0000
  I   I31       1.0  0.72371  0.74534  0.54046  1.0000
  I   I32       1.0  0.18758  0.47821  0.47292  1.0000
  I   I33       1.0  0.45947  0.92523  0.36802  1.0000
  I   I34       1.0  0.70899  0.81647  0.02242  1.0000
  I   I35       1.0  0.27847  0.27347  0.42436  1.0000
  I   I36       1.0  0.72823  0.43567  0.58621  1.0000
  I   I37       1.0  0.24578  0.32980  0.59951  1.0000
  I   I38       1.0  0.86824  0.41262  0.49320  1.0000
  I   I39       1.0  0.23699  0.31906  0.73948  1.0000
  I   I40       1.0  0.89509  0.26947  0.55212  1.0000
  I   I41       1.0  0.03411  0.50302  0.07928  1.0000
  I   I42       1.0  0.65746  0.67990  0.53352  1.0000
  I   I43       1.0  0.43108  0.22650  0.33941  1.0000
  I   I44       1.0  0.94950  0.26263  0.63177  1.0000
  I   I45       1.0  0.84113  0.55656  0.40323  1.0000
  I   I46       1.0  0.49780  0.11214  0.70816  1.0000
  I   I47       1.0  0.83698  0.09716  0.93770  1.0000
  I   I48       1.0  0.96467  0.96971  0.52307  1.0000
  I   I49       1.0  0.10038  0.87627  0.25878  1.0000
  I   I50       1.0  0.52853  0.80112  0.76029  1.0000
  I   I51       1.0  0.56939  0.75400  0.74928  1.0000
  I   I52       1.0  0.75234  0.71232  0.63900  1.0000
  I   I53       1.0  0.38740  0.67910  0.72972  1.0000
  I   I54       1.0  0.35202  0.88707  0.77649  1.0000
  I   I55       1.0  0.75797  0.79871  0.19166  1.0000
  I   I56       1.0  0.05728  0.04450  0.60752  1.0000
  I   I57       1.0  0.46353  0.16320  0.74338  1.0000
  I   I58       1.0  0.62286  0.61484  0.49215  1.0000
  I   I59       1.0  0.17207  0.91353  0.81815  1.0000
  I   I60       1.0  0.86841  0.14992  0.98829  1.0000
  I   I61       1.0  0.99497  0.58112  0.85014  1.0000
  I   I62       1.0  0.93508  0.56686  0.70072  1.0000
  I   I63       1.0  0.04275  0.71020  0.80426  1.0000
  I   I64       1.0  0.10685  0.95925  0.71296  1.0000
  I   I65       1.0  0.20014  0.40691  0.91276  1.0000
  I   I66       1.0  0.38922  0.96685  0.11781  1.0000
  I   I67       1.0  0.51050  0.27395  0.84217  1.0000
  I   I68       1.0  0.05779  0.76720  0.73759  1.0000
  I   I69       1.0  0.10468  0.71449  0.44758  1.0000
  I   I70       1.0  0.24544  0.02549  0.52447  1.0000
  I   I71       1.0  0.21522  0.49910  0.52857  1.0000
  I   I72       1.0  0.89899  0.07680  0.92428  1.0000
  I   I73       1.0  0.71703  0.84319  0.88457  1.0000
  I   I74       1.0  0.13256  0.74004  0.48367  1.0000
  I   I75       1.0  0.12323  0.77014  0.38235  1.0000
  I   I76       1.0  0.91107  0.23906  0.14959  1.0000
  I   I77       1.0  0.84730  0.24767  0.29955  1.0000
  I   I78       1.0  0.78422  0.21634  0.28664  1.0000
  I   I79       1.0  0.51713  0.31205  0.07684  1.0000
  I   I80       1.0  0.95649  0.79736  0.52944  1.0000
  I   I81       1.0  0.46223  0.72663  0.18263  1.0000
  I   I82       1.0  0.69662  0.52328  0.63413  1.0000
  I   I83       1.0  0.86136  0.57230  0.20171  1.0000
  I   I84       1.0  0.36965  0.20562  0.53587  1.0000
  I   I85       1.0  0.31007  0.30138  0.67417  1.0000
  I   I86       1.0  0.41551  0.98861  0.03748  1.0000
  I   I87       1.0  0.89504  0.37248  0.58660  1.0000
  I   I88       1.0  0.67454  0.57921  0.43113  1.0000
  I   I89       1.0  0.70702  0.40895  0.65095  1.0000
  I   I90       1.0  0.97447  0.52182  0.00334  1.0000
  I   I91       1.0  0.72608  0.20283  0.69415  1.0000
  I   I92       1.0  0.33270  0.55836  0.12001  1.0000
  I   I93       1.0  0.89016  0.27406  0.65448  1.0000
  I   I94       1.0  0.94869  0.93546  0.49770  1.0000
  I   I95       1.0  0.83118  0.36946  0.98384  1.0000
  I   I96       1.0  0.53249  0.50917  0.49928  1.0000
  I   I97       1.0  0.04617  0.19200  0.58218  1.0000
  I   I98       1.0  0.94555  0.74849  0.53491  1.0000
  I   I99       1.0  0.52403  0.80647  0.57665  1.0000
  I   I100      1.0  0.22703  0.18281  0.87985  1.0000
  I   I101      1.0  0.11393  0.86838  0.69060  1.0000
  I   I102      1.0  0.44496  0.04403  0.50516  1.0000
  I   I103      1.0  0.76105  0.84703  0.19831  1.0000
  I   I104      1.0  0.56868  0.70804  0.85445  1.0000
  I   I105      1.0  0.08458  0.43546  0.67708  1.0000
  I   I106      1.0  0.65939  0.89915  0.38139  1.0000
  I   I107      1.0  0.67040  0.55673  0.50627  1.0000
  I   I108      1.0  0.65690  0.87756  0.27981  1.0000
  I   I109      1.0  0.87035  0.27872  0.34047  1.0000
  I   I110      1.0  0.00242  0.52637  0.83007  1.0000
  I   I111      1.0  0.05116  0.68026  0.70893  1.0000
  I   I112      1.0  0.73890  0.22001  0.98174  1.0000
  I   I113      1.0  0.24837  0.40176  0.84310  1.0000
  I   I114      1.0  0.35527  0.41940  0.43278  1.0000
  I   I115      1.0  0.27605  0.34703  0.14659  1.0000
  I   I116      1.0  0.30111  0.35763  0.24337  1.0000
  I   I117      1.0  0.78618  0.10101  0.44608  1.0000
  I   I118      1.0  0.46474  0.49655  0.59538  1.0000
  I   I119      1.0  0.33216  0.34704  0.15614  1.0000
  I   I120      1.0  0.83581  0.06527  0.87726  1.0000
  I   I121      1.0  0.66178  0.35026  0.28451  1.0000
  I   I122      1.0  0.79389  0.36935  0.14873  1.0000
  I   I123      1.0  0.87119  0.75213  0.23224  1.0000
  I   I124      1.0  0.17162  0.29148  0.21443  1.0000
  I   I125      1.0  0.68086  0.02329  0.33726  1.0000
  I   I126      1.0  0.00402  0.00905  0.64341  1.0000
  I   I127      1.0  0.58200  0.28764  0.10116  1.0000
  I   I128      1.0  0.17518  0.18544  0.90465  1.0000
  I   I129      1.0  0.19831  0.45709  0.56005  1.0000
  I   I130      1.0  0.29397  0.22931  0.49484  1.0000
  I   I131      1.0  0.64896  0.56964  0.65303  1.0000
  I   I132      1.0  0.65698  0.86213  0.05177  1.0000
  I   I133      1.0  0.83737  0.41483  0.59021  1.0000
  I   I134      1.0  0.41862  0.38200  0.88148  1.0000
  I   I135      1.0  0.36836  0.99183  0.19138  1.0000
  I   I136      1.0  0.86208  0.66020  0.51441  1.0000
  I   I137      1.0  0.44220  0.52174  0.38208  1.0000
  I   I138      1.0  0.00516  0.58889  0.53122  1.0000
  I   I139      1.0  0.70986  0.21648  0.58678  1.0000
  I   I140      1.0  0.34208  0.59893  0.18689  1.0000
  I   I141      1.0  0.34984  0.55982  0.79658  1.0000
  I   I142      1.0  0.89211  0.97312  0.49894  1.0000
  I   I143      1.0  0.10155  0.20842  0.52181  1.0000
  I   I144      1.0  0.48951  0.49667  0.50963  1.0000
  I   I145      1.0  0.98308  0.75443  0.45768  1.0000
  I   I146      1.0  0.51499  0.75296  0.74104  1.0000
  I   I147      1.0  0.03702  0.22795  0.49645  1.0000
  I   I148      1.0  0.41312  0.50083  0.34148  1.0000
  I   I149      1.0  0.42588  0.02394  0.58600  1.0000
  I   I150      1.0  0.60827  0.53986  0.19653  1.0000
  I   I151      1.0  0.55286  0.66798  0.76359  1.0000
  I   I152      1.0  0.10265  0.06270  0.63664  1.0000
  I   I153      1.0  0.09088  0.47558  0.71092  1.0000
  I   I154      1.0  0.14993  0.80546  0.30276  1.0000
  I   I155      1.0  0.99956  0.98109  0.03464  1.0000
  I   I156      1.0  0.82889  0.20599  0.02337  1.0000
  I   I157      1.0  0.94035  0.20489  0.21800  1.0000
  I   I158      1.0  0.99614  0.72612  0.70898  1.0000
  I   I159      1.0  0.55569  0.14831  0.30618  1.0000
  I   I160      1.0  0.71165  0.19267  0.89242  1.0000
  I   I161      1.0  0.32617  0.46433  0.34288  1.0000
  I   I162      1.0  0.75448  0.14980  0.85820  1.0000
  I   I163      1.0  0.53415  0.28682  0.75691  1.0000
  I   I164      1.0  0.82223  0.12302  0.43697  1.0000
  I   I165      1.0  0.11462  0.01723  0.67853  1.0000
  I   I166      1.0  0.48511  0.44675  0.55543  1.0000
  I   I167      1.0  0.24275  0.50822  0.60589  1.0000
  I   I168      1.0  0.56003  0.24971  0.48316  1.0000
  I   I169      1.0  0.66930  0.45588  0.11265  1.0000
  I   I170      1.0  0.71567  0.40178  0.10727  1.0000
  I   I171      1.0  0.73757  0.84450  0.96981  1.0000
  I   I172      1.0  0.67051  0.00482  0.43983  1.0000
  I   I173      1.0  0.95732  0.06812  0.65597  1.0000
  I   I174      1.0  0.14625  0.24157  0.20775  1.0000
  I   I175      1.0  0.83070  0.19950  0.18422  1.0000
  I   I176      1.0  0.46736  0.71311  0.28498  1.0000
  I   I177      1.0  0.47692  0.87245  0.44524  1.0000
  I   I178      1.0  0.71490  0.54937  0.61468  1.0000
  I   I179      1.0  0.81387  0.56402  0.19333  1.0000
  I   I180      1.0  0.32847  0.19598  0.58542  1.0000
  I   I181      1.0  0.30094  0.28303  0.76677  1.0000
  I   I182      1.0  0.79302  0.83631  0.27005  1.0000
  I   I183      1.0  0.65953  0.73151  0.44817  1.0000
  I   I184      1.0  0.08373  0.85977  0.59741  1.0000
  I   I185      1.0  0.95016  0.60738  0.48467  1.0000
  I   I186      1.0  0.90038  0.68709  0.55016  1.0000
  I   I187      1.0  0.28645  0.61520  0.14564  1.0000
  I   I188      1.0  0.89398  0.31565  0.60030  1.0000
  I   I189      1.0  0.68856  0.70812  0.35458  1.0000
  I   I190      1.0  0.80788  0.43216  0.97848  1.0000
  I   I191      1.0  0.23397  0.28967  0.94904  1.0000
  I   I192      1.0  0.08793  0.17552  0.59399  1.0000
  I   I193      1.0  0.95259  0.97014  0.68943  1.0000
  I   I194      1.0  0.01147  0.54901  0.01550  1.0000
  I   I195      1.0  0.06970  0.17923  0.49720  1.0000
  I   I196      1.0  0.18254  0.16247  0.81601  1.0000
  I   I197      1.0  0.44710  0.22876  0.24333  1.0000
  I   I198      1.0  0.63844  0.55471  0.12539  1.0000
  I   I199      1.0  0.45475  0.68061  0.22751  1.0000
  I   I200      1.0  0.79567  0.94975  0.76678  1.0000
  I   I201      1.0  0.05884  0.43168  0.78077  1.0000
  I   I202      1.0  0.14899  0.87425  0.80268  1.0000
  I   I203      1.0  0.15196  0.71343  0.39042  1.0000
  I   I204      1.0  0.69578  0.89722  0.29549  1.0000
  I   I205      1.0  0.97345  0.56797  0.90429  1.0000
  I   I206      1.0  0.16695  0.22037  0.83495  1.0000
  I   I207      1.0  0.93385  0.25877  0.23899  1.0000
  I   I208      1.0  0.12554  0.95817  0.81847  1.0000
  I   I209      1.0  0.35710  0.47860  0.41750  1.0000
  I   I210      1.0  0.42536  0.89632  0.42983  1.0000
  I   I211      1.0  0.25513  0.97310  0.48096  1.0000
  I   I212      1.0  0.06467  0.74514  0.81826  1.0000
  I   I213      1.0  0.03690  0.75924  0.46762  1.0000
  I   I214      1.0  0.56349  0.47191  0.59262  1.0000
  I   I215      1.0  0.25303  0.45774  0.65102  1.0000
  I   I216      1.0  0.32717  0.59629  0.69507  1.0000
  I   I217      1.0  0.75413  0.35365  0.11746  1.0000
  I   I218      1.0  0.92851  0.69552  0.29775  1.0000
  I   I219      1.0  0.66114  0.36476  0.39134  1.0000
  I   I220      1.0  0.88337  0.27394  0.24300  1.0000
  I   I221      1.0  0.99053  0.96443  0.61905  1.0000
  I   I222      1.0  0.67558  0.05615  0.43311  1.0000
  I   I223      1.0  0.85126  0.18288  0.27612  1.0000
  I   I224      1.0  0.51347  0.67063  0.19347  1.0000
  I   I225      1.0  0.54288  0.33715  0.15017  1.0000
  I   I226      1.0  0.70418  0.53721  0.72767  1.0000
  I   I227      1.0  0.66993  0.80568  0.04776  1.0000
  I   I228      1.0  0.33566  0.18200  0.47716  1.0000
  I   I229      1.0  0.31361  0.46310  0.43519  1.0000
  I   I230      1.0  0.41703  0.32542  0.91984  1.0000
  I   I231      1.0  0.86919  0.44183  0.57278  1.0000
  I   I232      1.0  0.27402  0.19304  0.84874  1.0000
  I   I233      1.0  0.97417  0.68297  0.03119  1.0000
  I   I234      1.0  0.19332  0.25754  0.94144  1.0000
  I   I235      1.0  0.12124  0.85480  0.35811  1.0000
  I   I236      1.0  0.32002  0.54335  0.73262  1.0000
  I   I237      1.0  0.73932  0.24598  0.66928  1.0000
  I   I238      1.0  0.48902  0.16101  0.81173  1.0000
  I   I239      1.0  0.52652  0.45218  0.61297  1.0000
  I   I240      1.0  0.96616  0.98277  0.42175  1.0000
  I   I241      1.0  0.99763  0.74622  0.57477  1.0000
  I   I242      1.0  0.55232  0.74277  0.66262  1.0000
  I   I243      1.0  0.85294  0.36632  0.90041  1.0000
  I   I244      1.0  0.09188  0.82732  0.67778  1.0000
  I   I245      1.0  0.39814  0.64974  0.63527  1.0000
  I   I246      1.0  0.60404  0.60108  0.19184  1.0000
  I   I247      1.0  0.79036  0.78213  0.11287  1.0000
  I   I248      1.0  0.08511  0.03885  0.77248  1.0000
  I   I249      1.0  0.10722  0.43466  0.78358  1.0000
  I   I250      1.0  0.15843  0.95203  0.73969  1.0000
  I   I251      1.0  0.99575  0.99273  0.93246  1.0000
  I   I252      1.0  0.86748  0.19379  0.92286  1.0000
  I   I253      1.0  0.93352  0.56835  0.82970  1.0000
  I   I254      1.0  0.25180  0.20012  0.76130  1.0000
  I   I255      1.0  0.59918  0.12120  0.22636  1.0000
  I   I256      1.0  0.17909  0.45312  0.85098  1.0000
  I   I257      1.0  0.27429  0.28483  0.64727  1.0000
  I   I258      1.0  0.75714  0.19586  0.79703  1.0000
  I   I259      1.0  0.26714  0.39761  0.17824  1.0000
  I   I260      1.0  0.83883  0.06249  0.39845  1.0000
  I   I261      1.0  0.06282  0.08001  0.69108  1.0000
  I   I262      1.0  0.58277  0.45259  0.49104  1.0000
  I   I263      1.0  0.19606  0.62889  0.38745  1.0000
  I   I264      1.0  0.33659  0.24258  0.48959  1.0000
  I   I265      1.0  0.73950  0.41132  0.18911  1.0000
  I   I266      1.0  0.08490  0.77219  0.44878  1.0000
  I   I267      1.0  0.61985  0.34182  0.34030  1.0000
  I   I268      1.0  0.40779  0.94331  0.02672  1.0000
  I   I269      1.0  0.98040  0.04159  0.73658  1.0000
  I   I270      1.0  0.39838  0.02775  0.15463  1.0000
  I   I271      1.0  0.80797  0.17304  0.24465  1.0000
  I   I272      1.0  0.14806  0.50688  0.55748  1.0000
  I   I273      1.0  0.54259  0.28957  0.18221  1.0000
  I   I274      1.0  0.93610  0.72483  0.95353  1.0000
  I   I275      1.0  0.63453  0.83835  0.98744  1.0000
  I   I276      1.0  0.28971  0.30035  0.49276  1.0000
  I   I277      1.0  0.68729  0.59141  0.66759  1.0000
  I   I278      1.0  0.43729  0.32599  0.81442  1.0000
  I   I279      1.0  0.82566  0.52283  0.37886  1.0000
  I   I280      1.0  0.44758  0.46692  0.42699  1.0000
  I   I281      1.0  0.96250  0.65885  0.95642  1.0000
  I   I282      1.0  0.84674  0.71353  0.53078  1.0000
  I   I283      1.0  0.13155  0.82199  0.20887  1.0000
  I   I284      1.0  0.54446  0.28439  0.39946  1.0000
  I   I285      1.0  0.71424  0.68482  0.44162  1.0000
  I   I286      1.0  0.50850  0.11212  0.81962  1.0000
  I   I287      1.0  0.89071  0.02720  0.92035  1.0000
  I   I288      1.0  0.90873  0.00636  0.48862  1.0000
  I   I289      1.0  0.15146  0.84425  0.25775  1.0000
  I   I290      1.0  0.20984  0.27015  0.03539  1.0000
  I   I291      1.0  0.50587  0.78285  0.65149  1.0000
  I   I292      1.0  0.40588  0.52108  0.46706  1.0000
  I   I293      1.0  0.37620  0.71175  0.64444  1.0000
  I   I294      1.0  0.39481  0.83601  0.79190  1.0000
  I   I295      1.0  0.84096  0.81978  0.19249  1.0000
  I   I296      1.0  0.79181  0.01482  0.74797  1.0000
  I   I297      1.0  0.07373  0.39700  0.68816  1.0000
  I   I298      1.0  0.39475  0.22069  0.25579  1.0000
  I   I299      1.0  0.14879  0.90566  0.72850  1.0000
  I   I300      1.0  0.37437  0.54393  0.68141  1.0000
  I   I301      1.0  0.61375  0.13445  0.32609  1.0000
  I   I302      1.0  0.96999  0.57560  0.77339  1.0000
  I   I303      1.0  0.67725  0.61070  0.55144  1.0000
  I   I304      1.0  0.78125  0.18293  0.89809  1.0000
  I   I305      1.0  0.14506  0.90086  0.88729  1.0000
  I   I306      1.0  0.79449  0.87092  0.19541  1.0000
  I   I307      1.0  0.49289  0.34027  0.77838  1.0000
  I   I308      1.0  0.01184  0.76170  0.74252  1.0000
  I   I309      1.0  0.05899  0.08997  0.54431  1.0000
  I   I310      1.0  0.08690  0.83904  0.29298  1.0000
  I   I311      1.0  0.25019  0.63197  0.36890  1.0000
  I   I312      1.0  0.90833  0.02979  0.83101  1.0000
  I   I313      1.0  0.61432  0.39700  0.32552  1.0000
  I   I314      1.0  0.67812  0.42316  0.19363  1.0000
  I   I315      1.0  0.87179  0.70104  0.28104  1.0000
  I   I316      1.0  0.63044  0.06724  0.36061  1.0000
  I   I317      1.0  0.42930  0.97371  0.17662  1.0000
  I   I318      1.0  0.95513  0.02105  0.61709  1.0000
  I   I319      1.0  0.43408  0.89876  0.33378  1.0000
  I   I320      1.0  0.21345  0.19427  0.78434  1.0000
  I   I321      1.0  0.54368  0.67325  0.86672  1.0000
  I   I322      1.0  0.68841  0.46538  0.65102  1.0000
  I   I323      1.0  0.86308  0.54176  0.28875  1.0000
  I   I324      1.0  0.25945  0.28163  0.53869  1.0000
  I   I325      1.0  0.25997  0.34261  0.70920  1.0000
  I   I326      1.0  0.81461  0.79076  0.19320  1.0000
  I   I327      1.0  0.83227  0.52837  0.26918  1.0000
  I   I328      1.0  0.65758  0.63574  0.46465  1.0000
  I   I329      1.0  0.97853  0.56471  0.58515  1.0000
  I   I330      1.0  0.17222  0.31666  0.97299  1.0000
  I   I331      1.0  0.64842  0.69897  0.37661  1.0000
  I   I332      1.0  0.44938  0.17646  0.27601  1.0000
  I   I333      1.0  0.65980  0.43835  0.60170  1.0000
  I   I334      1.0  0.91728  0.98181  0.59215  1.0000
  I   I335      1.0  0.79819  0.40910  0.89457  1.0000
  I   I336      1.0  0.52913  0.44978  0.50959  1.0000
  I   I337      1.0  0.15474  0.85900  0.16333  1.0000
  I   I338      1.0  0.04186  0.49680  0.97725  1.0000
  I   I339      1.0  0.54628  0.75228  0.55759  1.0000
  I   I340      1.0  0.79084  0.71902  0.57355  1.0000
  I   I341      1.0  0.48726  0.00711  0.57324  1.0000
  I   I342      1.0  0.37309  0.83861  0.88502  1.0000
  I   I343      1.0  0.60242  0.64633  0.84710  1.0000
  I   I344      1.0  0.81473  0.97443  0.84305  1.0000
  I   I345      1.0  0.01538  0.43926  0.70468  1.0000
  I   I346      1.0  0.23389  0.99417  0.58749  1.0000
  I   I347      1.0  0.10222  0.92271  0.78921  1.0000
  I   I348      1.0  0.88177  0.19918  0.02524  1.0000
  I   I349      1.0  0.58953  0.17553  0.23619  1.0000
  I   I350      1.0  0.91892  0.54331  0.76653  1.0000
  I   I351      1.0  0.26416  0.15104  0.77399  1.0000
  I   I352      1.0  0.73640  0.22186  0.87924  1.0000
  I   I353      1.0  0.20180  0.40156  0.81131  1.0000
  I   I354      1.0  0.74801  0.83159  0.11470  1.0000
  I   I355      1.0  0.53461  0.30389  0.85101  1.0000
  I   I356      1.0  0.84043  0.07261  0.50373  1.0000
  I   I357      1.0  0.07296  0.71248  0.50546  1.0000
  I   I358      1.0  0.49516  0.28747  0.43549  1.0000
  I   I359      1.0  0.19733  0.67930  0.33623  1.0000
  I   I360      1.0  0.86354  0.01049  0.85878  1.0000
  I   I361      1.0  0.75997  0.79457  0.95019  1.0000
  I   I362      1.0  0.69994  0.46705  0.17174  1.0000
  I   I363      1.0  0.07669  0.75726  0.55284  1.0000
  I   I364      1.0  0.20160  0.22900  0.21146  1.0000
  I   I365      1.0  0.91676  0.22419  0.32168  1.0000
  I   I366      1.0  0.98339  0.99225  0.72776  1.0000
  I   I367      1.0  0.49458  0.86773  0.35880  1.0000
  I   I368      1.0  0.75033  0.76477  0.61738  1.0000
  I   I369      1.0  0.19751  0.50501  0.60877  1.0000
  I   I370      1.0  0.91933  0.68601  0.02477  1.0000
  I   I371      1.0  0.87315  0.52034  0.17739  1.0000
  I   I372      1.0  0.54319  0.30059  0.50680  1.0000
  I   I373      1.0  0.21518  0.32092  0.66218  1.0000
  I   I374      1.0  0.37634  0.36443  0.86604  1.0000
  I   I375      1.0  0.80388  0.57582  0.32719  1.0000
  I   I376      1.0  0.21651  0.62764  0.28598  1.0000
  I   I377      1.0  0.99594  0.55052  0.46840  1.0000
  I   I378      1.0  0.90492  0.68361  0.45174  1.0000
  I   I379      1.0  0.68539  0.26035  0.65767  1.0000
  I   I380      1.0  0.31166  0.57028  0.22886  1.0000
  I   I381      1.0  0.71112  0.84103  0.33918  1.0000
  I   I382      1.0  0.92030  0.97242  0.40383  1.0000
  I   I383      1.0  0.51717  0.15210  0.72793  1.0000
  I   I384      1.0  0.86787  0.08880  0.84674  1.0000
