data_image0
_chemical_formula_structural       Ti96I384
_chemical_formula_sum              "Ti96 I384"
_cell_length_a       74.0585
_cell_length_b       73.9763
_cell_length_c       36.208
_cell_angle_alpha    88.7757
_cell_angle_beta     88.7757
_cell_angle_gamma    62.1586

_space_group_name_H-M_alt    "P 1"
_space_group_IT_number       1

loop_
  _space_group_symop_operation_xyz
  'x, y, z'

loop_
  _atom_site_type_symbol
  _atom_site_label
  _atom_site_symmetry_multiplicity
  _atom_site_fract_x
  _atom_site_fract_y
  _atom_site_fract_z
  _atom_site_occupancy
  Ti  Ti1       1.0  0.76906  0.26491  0.88901  1.0000
  Ti  Ti2       1.0  0.47594  0.67733  0.50096  1.0000
  Ti  Ti3       1.0  0.15461  0.01367  0.19699  1.0000
  Ti  Ti4       1.0  0.08053  0.25358  0.92728  1.0000
  Ti  Ti5       1.0  0.33959  0.96146  0.59432  1.0000
  Ti  Ti6       1.0  0.42088  0.36443  0.47528  1.0000
  Ti  Ti7       1.0  0.57710  0.52351  0.79254  1.0000
  Ti  Ti8       1.0  0.27696  0.62316  0.30750  1.0000
  Ti  Ti9       1.0  0.26993  0.28478  0.59404  1.0000
  Ti  Ti10      1.0  0.60701  0.69545  0.30485  1.0000
  Ti  Ti11      1.0  0.23224  0.10469  0.30013  1.0000
  Ti  Ti12      1.0  0.87274  0.08895  0.75895  1.0000
  Ti  Ti13      1.0  0.87086  0.78948  0.49671  1.0000
  Ti  Ti14      1.0  0.03780  0.25925  0.02912  1.0000
  Ti  Ti15      1.0  0.82812  0.66334  0.66962  1.0000
  Ti  Ti16      1.0  0.13463  0.45820  0.52617  1.0000
  Ti  Ti17      1.0  0.07308  0.09034  0.44669  1.0000
  Ti  Ti18      1.0  0.14783  0.32484  0.75581  1.0000
  Ti  Ti19      1.0  0.05401  0.90843  0.07574  1.0000
  Ti  Ti20      1.0  0.20631  0.60596  0.92451  1.0000
  Ti  Ti21      1.0  0.33145  0.59136  0.30873  1.0000
  Ti  Ti22      1.0  0.92053  0.29076  0.58268  1.0000
  Ti  Ti23      1.0  0.99792  0.94779  0.36219  1.0000
  Ti  Ti24      1.0  0.71379  0.23242  0.35878  1.0000
  Ti  Ti25      1.0  0.55987  0.57181  0.30520  1.0000
  Ti  Ti26      1.0  0.65792  0.97426  0.09890  1.0000
  Ti  Ti27      1.0  0.57175  0.35376  0.34496  1.0000
  Ti  Ti28      1.0  0.30420  0.10752  0.55320  1.0000
  Ti  Ti29      1.0  0.35562  0.74777  0.94805  1.0000
  Ti  Ti30      1.0  0.50650  0.86289  0.46380  1.0000
  Ti  Ti31      1.0  0.20565  0.84700  0.42459  1.0000
  Ti  Ti32      1.0  0.55451  0.71493  0.85828  1.0000
  Ti  Ti33      1.0  0.45130  0.53947  0.07593  1.0000
  Ti  Ti34      1.0  0.54359  0.60310  0.60331  1.0000
  Ti  Ti35      1.0  0.96422  0.58782  0.47673  1.0000
  Ti  Ti36      1.0  0.65258  0.22302  0.44315  1.0000
  Ti  Ti37      1.0  0.87190  0.82467  0.78600  1.0000
  Ti  Ti38      1.0  0.41988  0.17595  0.64189  1.0000
  Ti  Ti39      1.0  0.84476  0.64965  0.94867  1.0000
  Ti  Ti40      1.0  0.56212  0.76171  0.44666  1.0000
  Ti  Ti41      1.0  0.85626  0.44145  0.08588  1.0000
  Ti  Ti42      1.0  0.03194  0.39812  0.14513  1.0000
  Ti  Ti43      1.0  0.81681  0.90239  0.21175  1.0000
  Ti  Ti44      1.0  0.83189  0.41320  0.08709  1.0000
  Ti  Ti45      1.0  0.26236  0.20201  0.40486  1.0000
  Ti  Ti46      1.0  0.48306  0.98247  0.17144  1.0000
  Ti  Ti47      1.0  0.21075  0.92108  0.84092  1.0000
  Ti  Ti48      1.0  0.11937  0.07673  0.91215  1.0000
  Ti  Ti49      1.0  0.85457  0.89407  0.13279  1.0000
  Ti  Ti50      1.0  0.12659  0.15397  0.37681  1.0000
  Ti  Ti51      1.0  0.44861  0.66965  0.57048  1.0000
  Ti  Ti52      1.0  0.84682  0.41885  0.60569  1.0000
  Ti  Ti53      1.0  0.05142  0.81227  0.33141  1.0000
  Ti  Ti54      1.0  0.72876  0.00804  0.59458  1.0000
  Ti  Ti55      1.0  0.57187  0.66607  0.90779  1.0000
  Ti  Ti56      1.0  0.33064  0.00753  0.36674  1.0000
  Ti  Ti57      1.0  0.29775  0.28778  0.52958  1.0000
  Ti  Ti58      1.0  0.37764  0.65280  0.11691  1.0000
  Ti  Ti59      1.0  0.47307  0.41576  0.86011  1.0000
  Ti  Ti60      1.0  0.92115  0.07312  0.69805  1.0000
  Ti  Ti61      1.0  0.80021  0.70542  0.75944  1.0000
  Ti  Ti62      1.0  0.83371  0.76125  0.54007  1.0000
  Ti  Ti63      1.0  0.23334  0.57572  0.01237  1.0000
  Ti  Ti64      1.0  0.15986  0.31236  0.84007  1.0000
  Ti  Ti65      1.0  0.18899  0.76921  0.55442  1.0000
  Ti  Ti66      1.0  0.25550  0.47188  0.43751  1.0000
  Ti  Ti67      1.0  0.05045  0.33601  0.49836  1.0000
  Ti  Ti68      1.0  0.68392  0.07446  0.27707  1.0000
  Ti  Ti69      1.0  0.70290  0.92251  0.08974  1.0000
  Ti  Ti70      1.0  0.10300  0.32610  0.44152  1.0000
  Ti  Ti71      1.0  0.97610  0.91472  0.42614  1.0000
  Ti  Ti72      1.0  0.25316  0.92439  0.86166  1.0000
  Ti  Ti73      1.0  0.60852  0.37118  0.37868  1.0000
  Ti  Ti74      1.0  0.60482  0.53776  0.39379  1.0000
  Ti  Ti75      1.0  0.41512  0.09752  0.86300  1.0000
  Ti  Ti76      1.0  0.36190  0.08145  0.47968  1.0000
  Ti  Ti77      1.0  0.88796  0.64241  0.67340  1.0000
  Ti  Ti78      1.0  0.33794  0.79978  0.96465  1.0000
  Ti  Ti79      1.0  0.50535  0.37950  0.54233  1.0000
  Ti  Ti80      1.0  0.15451  0.19132  0.13339  1.0000
  Ti  Ti81      1.0  0.54097  0.76522  0.80094  1.0000
  Ti  Ti82      1.0  0.93839  0.35138  0.36536  1.0000
  Ti  Ti83      1.0  0.03354  0.53145  0.67174  1.0000
  Ti  Ti84      1.0  0.61775  0.20053  0.48278  1.0000
  Ti  Ti85      1.0  0.86863  0.85160  0.71667  1.0000
  Ti  Ti86      1.0  0.56606  0.51383  0.89636  1.0000
  Ti  Ti87      1.0  0.28239  0.23639  0.36157  1.0000
  Ti  Ti88      1.0  0.78500  0.66063  0.24168  1.0000
  Ti  Ti89      1.0  0.41648  0.42992  0.16205  1.0000
  Ti  Ti90      1.0  0.02841  0.41193  0.24702  1.0000
  Ti  Ti91      1.0  0.19023  0.80417  0.13933  1.0000
  Ti  Ti92      1.0  0.68496  0.84629  0.91404  1.0000
  Ti  Ti93      1.0  0.87372  0.13507  0.44194  1.0000
  Ti  Ti94      1.0  0.09486  0.05773  0.99620  1.0000
  Ti  Ti95      1.0  0.92249  0.55682  0.82872  1.0000
  Ti  Ti96      1.0  0.97470  0.29179  0.59827  1.0000
  I   I1        1.0  0.27640  0.91640  0.80118  1.0000
  I   I2        1.0  0.45161  0.71016  0.55053  1.0000
  I   I3        1.0  0.85697  0.85946  0.10567  1.0000
  I   I4        1.0  0.08766  0.78140  0.33258  1.0000
  I   I5        1.0  0.44384  0.35630  0.52985  1.0000
  I   I6        1.0  0.73924  0.96934  0.57893  1.0000
  I   I7        1.0  0.27781  0.59557  0.25710  1.0000
  I   I8        1.0  0.29606  0.00773  0.34217  1.0000
  I   I9        1.0  0.29296  0.30229  0.46249  1.0000
  I   I10       1.0  0.60997  0.67386  0.36140  1.0000
  I   I11       1.0  0.21013  0.13023  0.34904  1.0000
  I   I12       1.0  0.30944  0.96181  0.63028  1.0000
  I   I13       1.0  0.90120  0.79696  0.51720  1.0000
  I   I14       1.0  0.22718  0.57714  0.08751  1.0000
  I   I15       1.0  0.83102  0.62632  0.68850  1.0000
  I   I16       1.0  0.56690  0.70751  0.28555  1.0000
  I   I17       1.0  0.22071  0.50500  0.45026  1.0000
  I   I18       1.0  0.13671  0.30293  0.79830  1.0000
  I   I19       1.0  0.24525  0.57664  0.94311  1.0000
  I   I20       1.0  0.19648  0.10940  0.27057  1.0000
  I   I21       1.0  0.25406  0.62255  0.36252  1.0000
  I   I22       1.0  0.99526  0.96306  0.42168  1.0000
  I   I23       1.0  0.95811  0.89166  0.39681  1.0000
  I   I24       1.0  0.04331  0.32529  0.56291  1.0000
  I   I25       1.0  0.55143  0.61053  0.32687  1.0000
  I   I26       1.0  0.42124  0.06106  0.88172  1.0000
  I   I27       1.0  0.57225  0.33440  0.28626  1.0000
  I   I28       1.0  0.34325  0.06934  0.53316  1.0000
  I   I29       1.0  0.31211  0.81609  0.90243  1.0000
  I   I30       1.0  0.48197  0.88348  0.51670  1.0000
  I   I31       1.0  0.16532  0.21768  0.10663  1.0000
  I   I32       1.0  0.53891  0.72813  0.77590  1.0000
  I   I33       1.0  0.46962  0.37854  0.56627  1.0000
  I   I34       1.0  0.93687  0.59631  0.42339  1.0000
  I   I35       1.0  0.59929  0.23071  0.43102  1.0000
  I   I36       1.0  0.54342  0.61746  0.66633  1.0000
  I   I37       1.0  0.89571  0.82213  0.67303  1.0000
  I   I38       1.0  0.85679  0.61670  0.90646  1.0000
  I   I39       1.0  0.89977  0.78623  0.77101  1.0000
  I   I40       1.0  0.82186  0.45045  0.05061  1.0000
  I   I41       1.0  0.02339  0.38016  0.26424  1.0000
  I   I42       1.0  0.60274  0.73923  0.44038  1.0000
  I   I43       1.0  0.34904  0.64150  0.11962  1.0000
  I   I44       1.0  0.86791  0.38558  0.11200  1.0000
  I   I45       1.0  0.31249  0.23866  0.32147  1.0000
  I   I46       1.0  0.95762  0.52590  0.81071  1.0000
  I   I47       1.0  0.18615  0.90308  0.85698  1.0000
  I   I48       1.0  0.10511  0.06412  0.85444  1.0000
  I   I49       1.0  0.80099  0.87523  0.19047  1.0000
  I   I50       1.0  0.48649  0.66976  0.42969  1.0000
  I   I51       1.0  0.50469  0.68534  0.52202  1.0000
  I   I52       1.0  0.18440  0.15565  0.14517  1.0000
  I   I53       1.0  0.03249  0.79043  0.32469  1.0000
  I   I54       1.0  0.69045  0.02535  0.60880  1.0000
  I   I55       1.0  0.61186  0.52360  0.80263  1.0000
  I   I56       1.0  0.35633  0.56149  0.26706  1.0000
  I   I57       1.0  0.88078  0.57244  0.82155  1.0000
  I   I58       1.0  0.60892  0.73034  0.29003  1.0000
  I   I59       1.0  0.50449  0.38556  0.83199  1.0000
  I   I60       1.0  0.92032  0.03847  0.69379  1.0000
  I   I61       1.0  0.85478  0.72422  0.53784  1.0000
  I   I62       1.0  0.82588  0.76606  0.61023  1.0000
  I   I63       1.0  0.18053  0.62714  0.98241  1.0000
  I   I64       1.0  0.11310  0.45640  0.46610  1.0000
  I   I65       1.0  0.17004  0.77709  0.49132  1.0000
  I   I66       1.0  0.26128  0.44498  0.48345  1.0000
  I   I67       1.0  0.09011  0.88181  0.10065  1.0000
  I   I68       1.0  0.17137  0.61101  0.89661  1.0000
  I   I69       1.0  0.71698  0.90756  0.15311  1.0000
  I   I70       1.0  0.08029  0.34495  0.38299  1.0000
  I   I71       1.0  0.95603  0.94698  0.39083  1.0000
  I   I72       1.0  0.21101  0.92999  0.76823  1.0000
  I   I73       1.0  0.57092  0.38948  0.32672  1.0000
  I   I74       1.0  0.64860  0.99685  0.15787  1.0000
  I   I75       1.0  0.62167  0.98753  0.07746  1.0000
  I   I76       1.0  0.90760  0.65080  0.61717  1.0000
  I   I77       1.0  0.85568  0.68456  0.65616  1.0000
  I   I78       1.0  0.74678  0.30455  0.91110  1.0000
  I   I79       1.0  0.45894  0.52029  0.01196  1.0000
  I   I80       1.0  0.21281  0.85467  0.35691  1.0000
  I   I81       1.0  0.51865  0.75121  0.87674  1.0000
  I   I82       1.0  0.96982  0.34779  0.32197  1.0000
  I   I83       1.0  0.07541  0.50969  0.66195  1.0000
  I   I84       1.0  0.65459  0.18866  0.43169  1.0000
  I   I85       1.0  0.85030  0.82486  0.72929  1.0000
  I   I86       1.0  0.24749  0.46092  0.37302  1.0000
  I   I87       1.0  0.83520  0.68674  0.93069  1.0000
  I   I88       1.0  0.55197  0.79214  0.40405  1.0000
  I   I89       1.0  0.83433  0.44227  0.15128  1.0000
  I   I90       1.0  0.00939  0.44202  0.29082  1.0000
  I   I91       1.0  0.16572  0.80818  0.19367  1.0000
  I   I92       1.0  0.68303  0.88231  0.92614  1.0000
  I   I93       1.0  0.83211  0.39462  0.02498  1.0000
  I   I94       1.0  0.08591  0.02543  0.99768  1.0000
  I   I95       1.0  0.50942  0.97180  0.22507  1.0000
  I   I96       1.0  0.00261  0.26364  0.63912  1.0000
  I   I97       1.0  0.17884  0.99122  0.24717  1.0000
  I   I98       1.0  0.75007  0.24067  0.88419  1.0000
  I   I99       1.0  0.44034  0.63788  0.58208  1.0000
  I   I100      1.0  0.04533  0.29431  0.03146  1.0000
  I   I101      1.0  0.76781  0.68329  0.18360  1.0000
  I   I102      1.0  0.36556  0.92462  0.61266  1.0000
  I   I103      1.0  0.54329  0.54869  0.85668  1.0000
  I   I104      1.0  0.55041  0.65227  0.95775  1.0000
  I   I105      1.0  0.28070  0.25143  0.63469  1.0000
  I   I106      1.0  0.94901  0.08590  0.70390  1.0000
  I   I107      1.0  0.62829  0.66974  0.26174  1.0000
  I   I108      1.0  0.85405  0.10785  0.82203  1.0000
  I   I109      1.0  0.79133  0.67992  0.71188  1.0000
  I   I110      1.0  0.79693  0.76746  0.51092  1.0000
  I   I111      1.0  0.25244  0.53972  0.03769  1.0000
  I   I112      1.0  0.18862  0.32387  0.80864  1.0000
  I   I113      1.0  0.21838  0.77979  0.57509  1.0000
  I   I114      1.0  0.10597  0.07362  0.48748  1.0000
  I   I115      1.0  0.01832  0.36953  0.49443  1.0000
  I   I116      1.0  0.13776  0.32392  0.46210  1.0000
  I   I117      1.0  0.66734  0.07130  0.34252  1.0000
  I   I118      1.0  0.88766  0.32344  0.60683  1.0000
  I   I119      1.0  0.11620  0.29431  0.40294  1.0000
  I   I120      1.0  0.22369  0.91928  0.91086  1.0000
  I   I121      1.0  0.62980  0.34924  0.43399  1.0000
  I   I122      1.0  0.56710  0.58137  0.23869  1.0000
  I   I123      1.0  0.40729  0.10675  0.79568  1.0000
  I   I124      1.0  0.54681  0.83988  0.47902  1.0000
  I   I125      1.0  0.28499  0.08760  0.55162  1.0000
  I   I126      1.0  0.31583  0.77301  0.97333  1.0000
  I   I127      1.0  0.48359  0.50839  0.11848  1.0000
  I   I128      1.0  0.04034  0.25388  0.93871  1.0000
  I   I129      1.0  0.55746  0.76440  0.73463  1.0000
  I   I130      1.0  0.73912  0.20736  0.40914  1.0000
  I   I131      1.0  0.90111  0.35282  0.34896  1.0000
  I   I132      1.0  0.95467  0.57451  0.54153  1.0000
  I   I133      1.0  0.88022  0.63506  0.98685  1.0000
  I   I134      1.0  0.45759  0.15187  0.64908  1.0000
  I   I135      1.0  0.29331  0.46527  0.42957  1.0000
  I   I136      1.0  0.05039  0.42059  0.18340  1.0000
  I   I137      1.0  0.80970  0.42242  0.61582  1.0000
  I   I138      1.0  0.41180  0.40257  0.20088  1.0000
  I   I139      1.0  0.18061  0.84045  0.11868  1.0000
  I   I140      1.0  0.64772  0.85062  0.91889  1.0000
  I   I141      1.0  0.84276  0.15864  0.39778  1.0000
  I   I142      1.0  0.10644  0.09108  0.99161  1.0000
  I   I143      1.0  0.15367  0.04828  0.18445  1.0000
  I   I144      1.0  0.98512  0.32095  0.60148  1.0000
  I   I145      1.0  0.80379  0.23717  0.92826  1.0000
  I   I146      1.0  0.50493  0.63840  0.51140  1.0000
  I   I147      1.0  0.12135  0.01398  0.17423  1.0000
  I   I148      1.0  0.84577  0.42698  0.53901  1.0000
  I   I149      1.0  0.35323  0.98249  0.63024  1.0000
  I   I150      1.0  0.40208  0.40275  0.47101  1.0000
  I   I151      1.0  0.55874  0.64535  0.86169  1.0000
  I   I152      1.0  0.30996  0.62629  0.25838  1.0000
  I   I153      1.0  0.29811  0.29628  0.60666  1.0000
  I   I154      1.0  0.85949  0.87063  0.20727  1.0000
  I   I155      1.0  0.24700  0.07092  0.24963  1.0000
  I   I156      1.0  0.86348  0.06139  0.78443  1.0000
  I   I157      1.0  0.84277  0.64461  0.60548  1.0000
  I   I158      1.0  0.23463  0.60892  0.03284  1.0000
  I   I159      1.0  0.83167  0.71402  0.77666  1.0000
  I   I160      1.0  0.18025  0.29830  0.72489  1.0000
  I   I161      1.0  0.05924  0.06310  0.43412  1.0000
  I   I162      1.0  0.18248  0.27640  0.86114  1.0000
  I   I163      1.0  0.03977  0.90409  0.01169  1.0000
  I   I164      1.0  0.71107  0.03705  0.27634  1.0000
  I   I165      1.0  0.35555  0.60168  0.33896  1.0000
  I   I166      1.0  0.92362  0.30895  0.52297  1.0000
  I   I167      1.0  0.97469  0.96504  0.30349  1.0000
  I   I168      1.0  0.72625  0.21234  0.29650  1.0000
  I   I169      1.0  0.60322  0.55177  0.32504  1.0000
  I   I170      1.0  0.63661  0.54029  0.40288  1.0000
  I   I171      1.0  0.53004  0.38093  0.34177  1.0000
  I   I172      1.0  0.28057  0.14419  0.56684  1.0000
  I   I173      1.0  0.39290  0.73103  0.97326  1.0000
  I   I174      1.0  0.48922  0.84160  0.43720  1.0000
  I   I175      1.0  0.22531  0.80704  0.43615  1.0000
  I   I176      1.0  0.53336  0.70081  0.90830  1.0000
  I   I177      1.0  0.48082  0.42212  0.54130  1.0000
  I   I178      1.0  0.96625  0.30959  0.36191  1.0000
  I   I179      1.0  0.02733  0.57019  0.66116  1.0000
  I   I180      1.0  0.59197  0.18817  0.47035  1.0000
  I   I181      1.0  0.88222  0.87548  0.69251  1.0000
  I   I182      1.0  0.57785  0.49179  0.82624  1.0000
  I   I183      1.0  0.22945  0.20166  0.38767  1.0000
  I   I184      1.0  0.77093  0.67202  0.30561  1.0000
  I   I185      1.0  0.41683  0.46364  0.16049  1.0000
  I   I186      1.0  0.00927  0.38589  0.11866  1.0000
  I   I187      1.0  0.70603  0.82898  0.85588  1.0000
  I   I188      1.0  0.80114  0.41089  0.11794  1.0000
  I   I189      1.0  0.24798  0.23798  0.43058  1.0000
  I   I190      1.0  0.46940  0.02152  0.19825  1.0000
  I   I191      1.0  0.16126  0.12530  0.41187  1.0000
  I   I192      1.0  0.11234  0.04871  0.06027  1.0000
  I   I193      1.0  0.34695  0.72031  0.98358  1.0000
  I   I194      1.0  0.13141  0.15565  0.30696  1.0000
  I   I195      1.0  0.17154  0.99915  0.13178  1.0000
  I   I196      1.0  0.10164  0.21695  0.89039  1.0000
  I   I197      1.0  0.36564  0.68056  0.06309  1.0000
  I   I198      1.0  0.44369  0.35415  0.42043  1.0000
  I   I199      1.0  0.58118  0.70377  0.91924  1.0000
  I   I200      1.0  0.34516  0.96965  0.39310  1.0000
  I   I201      1.0  0.24382  0.31153  0.63672  1.0000
  I   I202      1.0  0.44107  0.44279  0.82393  1.0000
  I   I203      1.0  0.66144  0.93339  0.10909  1.0000
  I   I204      1.0  0.89657  0.09866  0.64033  1.0000
  I   I205      1.0  0.84294  0.77404  0.47486  1.0000
  I   I206      1.0  0.03564  0.24770  0.09568  1.0000
  I   I207      1.0  0.85650  0.65124  0.72726  1.0000
  I   I208      1.0  0.11806  0.46213  0.59527  1.0000
  I   I209      1.0  0.08506  0.09055  0.37775  1.0000
  I   I210      1.0  0.51240  0.35984  0.47629  1.0000
  I   I211      1.0  0.09089  0.30338  0.49144  1.0000
  I   I212      1.0  0.21303  0.63208  0.88979  1.0000
  I   I213      1.0  0.70511  0.89443  0.05032  1.0000
  I   I214      1.0  0.96322  0.25821  0.57094  1.0000
  I   I215      1.0  0.03246  0.94578  0.34503  1.0000
  I   I216      1.0  0.72492  0.26092  0.37540  1.0000
  I   I217      1.0  0.52763  0.57045  0.29360  1.0000
  I   I218      1.0  0.44531  0.09835  0.89629  1.0000
  I   I219      1.0  0.61425  0.33758  0.33109  1.0000
  I   I220      1.0  0.91127  0.64161  0.72178  1.0000
  I   I221      1.0  0.37155  0.78028  0.91809  1.0000
  I   I222      1.0  0.32434  0.12182  0.50619  1.0000
  I   I223      1.0  0.21021  0.87286  0.45578  1.0000
  I   I224      1.0  0.57854  0.73754  0.84825  1.0000
  I   I225      1.0  0.42402  0.57673  0.04576  1.0000
  I   I226      1.0  0.94240  0.38748  0.36313  1.0000
  I   I227      1.0  0.95330  0.62638  0.48926  1.0000
  I   I228      1.0  0.62559  0.22906  0.51908  1.0000
  I   I229      1.0  0.04398  0.13044  0.44655  1.0000
  I   I230      1.0  0.41656  0.21300  0.61032  1.0000
  I   I231      1.0  0.81717  0.65315  0.99445  1.0000
  I   I232      1.0  0.00497  0.25734  0.00496  1.0000
  I   I233      1.0  0.85290  0.47172  0.04058  1.0000
  I   I234      1.0  0.06870  0.37561  0.12553  1.0000
  I   I235      1.0  0.82194  0.93441  0.17039  1.0000
  I   I236      1.0  0.90117  0.14107  0.41259  1.0000
  I   I237      1.0  0.20664  0.76571  0.11170  1.0000
  I   I238      1.0  0.91216  0.53018  0.86142  1.0000
  I   I239      1.0  0.99053  0.28184  0.53068  1.0000
  I   I240      1.0  0.15816  0.05580  0.89370  1.0000
  I   I241      1.0  0.77689  0.26421  0.82118  1.0000
  I   I242      1.0  0.40683  0.69080  0.57706  1.0000
  I   I243      1.0  0.50882  0.97664  0.11354  1.0000
  I   I244      1.0  0.81501  0.66973  0.23837  1.0000
  I   I245      1.0  0.04077  0.83751  0.38475  1.0000
  I   I246      1.0  0.39369  0.34938  0.47694  1.0000
  I   I247      1.0  0.55660  0.56012  0.77415  1.0000
  I   I248      1.0  0.26089  0.66328  0.29136  1.0000
  I   I249      1.0  0.25533  0.30082  0.52896  1.0000
  I   I250      1.0  0.44422  0.40363  0.88552  1.0000
  I   I251      1.0  0.25288  0.12421  0.27323  1.0000
  I   I252      1.0  0.85731  0.08595  0.69027  1.0000
  I   I253      1.0  0.83913  0.82390  0.50544  1.0000
  I   I254      1.0  0.10555  0.25812  0.96644  1.0000
  I   I255      1.0  0.80177  0.68445  0.82186  1.0000
  I   I256      1.0  0.20989  0.73057  0.53640  1.0000
  I   I257      1.0  0.83127  0.87815  0.71320  1.0000
  I   I258      1.0  0.11537  0.33122  0.72359  1.0000
  I   I259      1.0  0.06567  0.35977  0.47851  1.0000
  I   I260      1.0  0.69916  0.09831  0.27949  1.0000
  I   I261      1.0  0.33128  0.56835  0.36492  1.0000
  I   I262      1.0  0.90439  0.26747  0.58923  1.0000
  I   I263      1.0  0.00424  0.91078  0.36209  1.0000
  I   I264      1.0  0.68599  0.21502  0.38748  1.0000
  I   I265      1.0  0.56240  0.55451  0.37914  1.0000
  I   I266      1.0  0.67100  0.95519  0.02782  1.0000
  I   I267      1.0  0.63076  0.38717  0.34375  1.0000
  I   I268      1.0  0.31927  0.09440  0.61768  1.0000
  I   I269      1.0  0.30480  0.82637  0.00028  1.0000
  I   I270      1.0  0.34055  0.09771  0.41648  1.0000
  I   I271      1.0  0.17209  0.84629  0.43726  1.0000
  I   I272      1.0  0.54204  0.79167  0.84259  1.0000
  I   I273      1.0  0.42460  0.52901  0.10644  1.0000
  I   I274      1.0  0.50708  0.60545  0.61904  1.0000
  I   I275      1.0  0.00271  0.56626  0.46258  1.0000
  I   I276      1.0  0.63873  0.17181  0.53124  1.0000
  I   I277      1.0  0.94002  0.34467  0.43857  1.0000
  I   I278      1.0  0.40169  0.16448  0.69399  1.0000
  I   I279      1.0  0.27071  0.18021  0.46700  1.0000
  I   I280      1.0  0.85509  0.44633  0.63325  1.0000
  I   I281      1.0  0.87617  0.45462  0.13829  1.0000
  I   I282      1.0  0.99418  0.42279  0.19365  1.0000
  I   I283      1.0  0.77859  0.92648  0.19367  1.0000
  I   I284      1.0  0.86283  0.15760  0.50217  1.0000
  I   I285      1.0  0.30467  0.19255  0.40550  1.0000
  I   I286      1.0  0.92031  0.56501  0.90279  1.0000
  I   I287      1.0  0.17538  0.95375  0.83712  1.0000
  I   I288      1.0  0.11409  0.11626  0.89216  1.0000
  I   I289      1.0  0.83841  0.90951  0.07265  1.0000
  I   I290      1.0  0.09078  0.15464  0.38327  1.0000
  I   I291      1.0  0.46210  0.66860  0.63599  1.0000
  I   I292      1.0  0.86821  0.38465  0.64461  1.0000
  I   I293      1.0  0.04856  0.82679  0.26833  1.0000
  I   I294      1.0  0.75431  0.00366  0.53431  1.0000
  I   I295      1.0  0.58103  0.50709  0.72590  1.0000
  I   I296      1.0  0.34637  0.00931  0.30036  1.0000
  I   I297      1.0  0.28711  0.25495  0.53021  1.0000
  I   I298      1.0  0.41549  0.63373  0.09421  1.0000
  I   I299      1.0  0.17224  0.42956  0.52893  1.0000
  I   I300      1.0  0.85078  0.11603  0.45922  1.0000
  I   I301      1.0  0.80085  0.71609  0.67578  1.0000
  I   I302      1.0  0.86466  0.80019  0.42244  1.0000
  I   I303      1.0  0.54244  0.74728  0.40999  1.0000
  I   I304      1.0  0.13648  0.36184  0.73373  1.0000
  I   I305      1.0  0.12842  0.49354  0.50735  1.0000
  I   I306      1.0  0.59002  0.47861  0.92766  1.0000
  I   I307      1.0  0.02615  0.91253  0.12252  1.0000
  I   I308      1.0  0.20576  0.56907  0.96776  1.0000
  I   I309      1.0  0.30252  0.61375  0.36905  1.0000
  I   I310      1.0  0.82618  0.91270  0.27421  1.0000
  I   I311      1.0  0.97122  0.93334  0.49781  1.0000
  I   I312      1.0  0.27730  0.91840  0.91895  1.0000
  I   I313      1.0  0.58708  0.40341  0.41628  1.0000
  I   I314      1.0  0.59240  0.53731  0.45969  1.0000
  I   I315      1.0  0.38019  0.12408  0.88443  1.0000
  I   I316      1.0  0.38600  0.05084  0.44356  1.0000
  I   I317      1.0  0.37721  0.10411  0.49728  1.0000
  I   I318      1.0  0.35954  0.77693  0.01884  1.0000
  I   I319      1.0  0.51622  0.40358  0.58085  1.0000
  I   I320      1.0  0.07947  0.28203  0.88619  1.0000
  I   I321      1.0  0.57793  0.68953  0.81409  1.0000
  I   I322      1.0  0.56452  0.56622  0.62561  1.0000
  I   I323      1.0  0.00615  0.53106  0.72403  1.0000
  I   I324      1.0  0.63283  0.26182  0.41328  1.0000
  I   I325      1.0  0.86094  0.83609  0.85658  1.0000
  I   I326      1.0  0.57482  0.53764  0.94003  1.0000
  I   I327      1.0  0.24959  0.27524  0.33521  1.0000
  I   I328      1.0  0.55629  0.75504  0.51695  1.0000
  I   I329      1.0  0.38330  0.44001  0.12132  1.0000
  I   I330      1.0  0.06301  0.39113  0.28777  1.0000
  I   I331      1.0  0.27009  0.20862  0.32960  1.0000
  I   I332      1.0  0.36684  0.66957  0.18188  1.0000
  I   I333      1.0  0.89057  0.41465  0.06791  1.0000
  I   I334      1.0  0.12842  0.04051  0.95979  1.0000
  I   I335      1.0  0.47337  0.95209  0.19537  1.0000
  I   I336      1.0  0.93835  0.30412  0.64339  1.0000
  I   I337      1.0  0.88582  0.90099  0.14065  1.0000
  I   I338      1.0  0.12530  0.18834  0.39475  1.0000
  I   I339      1.0  0.44740  0.66045  0.49315  1.0000
  I   I340      1.0  0.14937  0.20931  0.19498  1.0000
  I   I341      1.0  0.34621  0.96550  0.52297  1.0000
  I   I342      1.0  0.74919  0.00274  0.65710  1.0000
  I   I343      1.0  0.60981  0.63909  0.92050  1.0000
  I   I344      1.0  0.31583  0.04344  0.40219  1.0000
  I   I345      1.0  0.33858  0.27292  0.52815  1.0000
  I   I346      1.0  0.05111  0.31743  0.43751  1.0000
  I   I347      1.0  0.49181  0.43541  0.88553  1.0000
  I   I348      1.0  0.91874  0.06457  0.77980  1.0000
  I   I349      1.0  0.76700  0.73995  0.77098  1.0000
  I   I350      1.0  0.87999  0.76244  0.56195  1.0000
  I   I351      1.0  0.07487  0.23044  0.01241  1.0000
  I   I352      1.0  0.14537  0.32731  0.90209  1.0000
  I   I353      1.0  0.16296  0.78478  0.61547  1.0000
  I   I354      1.0  0.53467  0.52622  0.94183  1.0000
  I   I355      1.0  0.05086  0.94510  0.06430  1.0000
  I   I356      1.0  0.67343  0.07232  0.21040  1.0000
  I   I357      1.0  0.67513  0.99529  0.07061  1.0000
  I   I358      1.0  0.67622  0.26133  0.33902  1.0000
  I   I359      1.0  0.00771  0.89100  0.46393  1.0000
  I   I360      1.0  0.25023  0.88938  0.83535  1.0000
  I   I361      1.0  0.57734  0.34288  0.41712  1.0000
  I   I362      1.0  0.62239  0.49884  0.38941  1.0000
  I   I363      1.0  0.72258  0.94085  0.07357  1.0000
  I   I364      1.0  0.49697  0.88345  0.40606  1.0000
  I   I365      1.0  0.89473  0.61143  0.64098  1.0000
  I   I366      1.0  0.36119  0.73208  0.88306  1.0000
  I   I367      1.0  0.52686  0.35212  0.59003  1.0000
  I   I368      1.0  0.12046  0.19196  0.11353  1.0000
  I   I369      1.0  0.50515  0.79227  0.77259  1.0000
  I   I370      1.0  0.56598  0.61252  0.55479  1.0000
  I   I371      1.0  0.03003  0.50310  0.63420  1.0000
  I   I372      1.0  0.68004  0.22003  0.48512  1.0000
  I   I373      1.0  0.90120  0.83760  0.78115  1.0000
  I   I374      1.0  0.40485  0.17223  0.58509  1.0000
  I   I375      1.0  0.28821  0.26047  0.40465  1.0000
  I   I376      1.0  0.78727  0.62538  0.23276  1.0000
  I   I377      1.0  0.44584  0.40785  0.11279  1.0000
  I   I378      1.0  0.02412  0.43205  0.10810  1.0000
  I   I379      1.0  0.22195  0.79835  0.18145  1.0000
  I   I380      1.0  0.70825  0.82088  0.96727  1.0000
  I   I381      1.0  0.89002  0.11436  0.73102  1.0000
  I   I382      1.0  0.06263  0.08764  0.96160  1.0000
  I   I383      1.0  0.92107  0.57816  0.76293  1.0000
  I   I384      1.0  0.22253  0.96217  0.85492  1.0000
