data_image0
_chemical_formula_structural       Ti96I384
_chemical_formula_sum              "Ti96 I384"
_cell_length_a       76.2831
_cell_length_b       76.2976
_cell_length_c       37.3243
_cell_angle_alpha    88.7757
_cell_angle_beta     88.7757
_cell_angle_gamma    62.1586

_space_group_name_H-M_alt    "P 1"
_space_group_IT_number       1

loop_
  _space_group_symop_operation_xyz
  'x, y, z'

loop_
  _atom_site_type_symbol
  _atom_site_label
  _atom_site_symmetry_multiplicity
  _atom_site_fract_x
  _atom_site_fract_y
  _atom_site_fract_z
  _atom_site_occupancy
  Ti  Ti1       1.0  0.79632  0.01098  0.64945  1.0000
  Ti  Ti2       1.0  0.46775  0.79807  0.68302  1.0000
  Ti  Ti3       1.0  0.14241  0.16569  0.53919  1.0000
  Ti  Ti4       1.0  0.20361  0.19137  0.75135  1.0000
  Ti  Ti5       1.0  0.36781  0.00784  0.71172  1.0000
  Ti  Ti6       1.0  0.51048  0.54258  0.98469  1.0000
  Ti  Ti7       1.0  0.90402  0.85058  0.09571  1.0000
  Ti  Ti8       1.0  0.25958  0.90912  0.40349  1.0000
  Ti  Ti9       1.0  0.12732  0.53670  0.62021  1.0000
  Ti  Ti10      1.0  0.49785  0.72911  0.34929  1.0000
  Ti  Ti11      1.0  0.18502  0.83237  0.07234  1.0000
  Ti  Ti12      1.0  0.67856  0.97549  0.98804  1.0000
  Ti  Ti13      1.0  0.87410  0.64756  0.79495  1.0000
  Ti  Ti14      1.0  0.15405  0.22471  0.79183  1.0000
  Ti  Ti15      1.0  0.89934  0.33005  0.05998  1.0000
  Ti  Ti16      1.0  0.21695  0.75403  0.54095  1.0000
  Ti  Ti17      1.0  0.22945  0.66837  0.56312  1.0000
  Ti  Ti18      1.0  0.63305  0.11628  0.87543  1.0000
  Ti  Ti19      1.0  0.72061  0.28434  0.87313  1.0000
  Ti  Ti20      1.0  0.03099  0.69774  0.93682  1.0000
  Ti  Ti21      1.0  0.30106  0.88844  0.43932  1.0000
  Ti  Ti22      1.0  0.57842  0.41577  0.80208  1.0000
  Ti  Ti23      1.0  0.16375  0.59137  0.57123  1.0000
  Ti  Ti24      1.0  0.64845  0.24170  0.56737  1.0000
  Ti  Ti25      1.0  0.69347  0.53458  0.03354  1.0000
  Ti  Ti26      1.0  0.09245  0.72385  0.58961  1.0000
  Ti  Ti27      1.0  0.66205  0.67227  0.02227  1.0000
  Ti  Ti28      1.0  0.53670  0.07480  0.98745  1.0000
  Ti  Ti29      1.0  0.00359  0.03938  0.87643  1.0000
  Ti  Ti30      1.0  0.14590  0.00063  0.23529  1.0000
  Ti  Ti31      1.0  0.76525  0.23310  0.15638  1.0000
  Ti  Ti32      1.0  0.51320  0.71554  0.08457  1.0000
  Ti  Ti33      1.0  0.56778  0.31464  0.93511  1.0000
  Ti  Ti34      1.0  0.80080  0.51600  0.31178  1.0000
  Ti  Ti35      1.0  0.53437  0.85681  0.22287  1.0000
  Ti  Ti36      1.0  0.21118  0.23782  0.49421  1.0000
  Ti  Ti37      1.0  0.11488  0.37027  0.81248  1.0000
  Ti  Ti38      1.0  0.38956  0.43291  0.73257  1.0000
  Ti  Ti39      1.0  0.96309  0.26373  0.62981  1.0000
  Ti  Ti40      1.0  0.52452  0.72969  0.41938  1.0000
  Ti  Ti41      1.0  0.76556  0.61764  0.16092  1.0000
  Ti  Ti42      1.0  0.82631  0.81904  0.47693  1.0000
  Ti  Ti43      1.0  0.03488  0.78889  0.25341  1.0000
  Ti  Ti44      1.0  0.76243  0.33681  0.33978  1.0000
  Ti  Ti45      1.0  0.69280  0.77638  0.34732  1.0000
  Ti  Ti46      1.0  0.84442  0.57468  0.00391  1.0000
  Ti  Ti47      1.0  0.95444  0.91785  0.97778  1.0000
  Ti  Ti48      1.0  0.00931  0.92727  0.50231  1.0000
  Ti  Ti49      1.0  0.01617  0.83463  0.31641  1.0000
  Ti  Ti50      1.0  0.06360  0.40395  0.99930  1.0000
  Ti  Ti51      1.0  0.52496  0.75261  0.70338  1.0000
  Ti  Ti52      1.0  0.45543  0.41338  0.07133  1.0000
  Ti  Ti53      1.0  0.41423  0.65916  0.77119  1.0000
  Ti  Ti54      1.0  0.39338  0.92517  0.81995  1.0000
  Ti  Ti55      1.0  0.45958  0.74688  0.14080  1.0000
  Ti  Ti56      1.0  0.75712  0.88207  0.78669  1.0000
  Ti  Ti57      1.0  0.16773  0.53741  0.65963  1.0000
  Ti  Ti58      1.0  0.39601  0.12233  0.71684  1.0000
  Ti  Ti59      1.0  0.22606  0.78736  0.56230  1.0000
  Ti  Ti60      1.0  0.88162  0.18532  0.97963  1.0000
  Ti  Ti61      1.0  0.67558  0.06369  0.48046  1.0000
  Ti  Ti62      1.0  0.89028  0.61581  0.70278  1.0000
  Ti  Ti63      1.0  0.04594  0.76806  0.92205  1.0000
  Ti  Ti64      1.0  0.64719  0.08714  0.82858  1.0000
  Ti  Ti65      1.0  0.52063  0.21396  0.65017  1.0000
  Ti  Ti66      1.0  0.38750  0.04703  0.06451  1.0000
  Ti  Ti67      1.0  0.32779  0.16121  0.31293  1.0000
  Ti  Ti68      1.0  0.67366  0.14702  0.06093  1.0000
  Ti  Ti69      1.0  0.05558  0.76937  0.56503  1.0000
  Ti  Ti70      1.0  0.27445  0.07047  0.52318  1.0000
  Ti  Ti71      1.0  0.19259  0.68263  0.16656  1.0000
  Ti  Ti72      1.0  0.00532  0.90384  0.95453  1.0000
  Ti  Ti73      1.0  0.65267  0.38602  0.27857  1.0000
  Ti  Ti74      1.0  0.73939  0.49105  0.04157  1.0000
  Ti  Ti75      1.0  0.10122  0.65449  0.15146  1.0000
  Ti  Ti76      1.0  0.49674  0.03836  0.51703  1.0000
  Ti  Ti77      1.0  0.84667  0.32389  0.05613  1.0000
  Ti  Ti78      1.0  0.02961  0.05569  0.88600  1.0000
  Ti  Ti79      1.0  0.43985  0.86117  0.36700  1.0000
  Ti  Ti80      1.0  0.69529  0.88666  0.90231  1.0000
  Ti  Ti81      1.0  0.12536  0.64052  0.44853  1.0000
  Ti  Ti82      1.0  0.71009  0.52145  0.83023  1.0000
  Ti  Ti83      1.0  0.04738  0.43556  0.27661  1.0000
  Ti  Ti84      1.0  0.24810  0.23413  0.58325  1.0000
  Ti  Ti85      1.0  0.13573  0.39116  0.75933  1.0000
  Ti  Ti86      1.0  0.94032  0.86942  0.12117  1.0000
  Ti  Ti87      1.0  0.68867  0.79856  0.24640  1.0000
  Ti  Ti88      1.0  0.17245  0.69118  0.04938  1.0000
  Ti  Ti89      1.0  0.06179  0.52756  0.27997  1.0000
  Ti  Ti90      1.0  0.10804  0.34902  0.07456  1.0000
  Ti  Ti91      1.0  0.78652  0.10356  0.44906  1.0000
  Ti  Ti92      1.0  0.32073  0.52389  0.20061  1.0000
  Ti  Ti93      1.0  0.45545  0.54041  0.73104  1.0000
  Ti  Ti94      1.0  0.97173  0.92154  0.50490  1.0000
  Ti  Ti95      1.0  0.30770  0.22521  0.03311  1.0000
  Ti  Ti96      1.0  0.53057  0.44216  0.83645  1.0000
  I   I1        1.0  0.00077  0.93660  0.91757  1.0000
  I   I2        1.0  0.50622  0.79433  0.67685  1.0000
  I   I3        1.0  0.98659  0.87114  0.30027  1.0000
  I   I4        1.0  0.37995  0.69575  0.77711  1.0000
  I   I5        1.0  0.47601  0.55962  0.95175  1.0000
  I   I6        1.0  0.41436  0.94044  0.79589  1.0000
  I   I7        1.0  0.32511  0.89242  0.39274  1.0000
  I   I8        1.0  0.78362  0.89352  0.79590  1.0000
  I   I9        1.0  0.15456  0.50977  0.67891  1.0000
  I   I10       1.0  0.54095  0.69064  0.44124  1.0000
  I   I11       1.0  0.17628  0.84908  0.00667  1.0000
  I   I12       1.0  0.33540  0.03451  0.74016  1.0000
  I   I13       1.0  0.90601  0.63420  0.74756  1.0000
  I   I14       1.0  0.04924  0.73083  0.92487  1.0000
  I   I15       1.0  0.88674  0.30235  0.08576  1.0000
  I   I16       1.0  0.55814  0.72735  0.43615  1.0000
  I   I17       1.0  0.35255  0.05822  0.09079  1.0000
  I   I18       1.0  0.60597  0.11452  0.82093  1.0000
  I   I19       1.0  0.01183  0.71635  0.88024  1.0000
  I   I20       1.0  0.16920  0.81452  0.11876  1.0000
  I   I21       1.0  0.22471  0.93699  0.43371  1.0000
  I   I22       1.0  0.12731  0.61040  0.59106  1.0000
  I   I23       1.0  0.16882  0.71023  0.11713  1.0000
  I   I24       1.0  0.31135  0.06320  0.50576  1.0000
  I   I25       1.0  0.69350  0.56841  0.01553  1.0000
  I   I26       1.0  0.06175  0.66791  0.16234  1.0000
  I   I27       1.0  0.66349  0.69361  0.07861  1.0000
  I   I28       1.0  0.53934  0.07086  0.05690  1.0000
  I   I29       1.0  0.04149  0.03739  0.95436  1.0000
  I   I30       1.0  0.14877  0.96731  0.26327  1.0000
  I   I31       1.0  0.69589  0.90086  0.96378  1.0000
  I   I32       1.0  0.14783  0.61143  0.40075  1.0000
  I   I33       1.0  0.45409  0.84197  0.30028  1.0000
  I   I34       1.0  0.55153  0.86197  0.16773  1.0000
  I   I35       1.0  0.23404  0.26232  0.64326  1.0000
  I   I36       1.0  0.83459  0.49623  0.28071  1.0000
  I   I37       1.0  0.16764  0.37967  0.71257  1.0000
  I   I38       1.0  0.92729  0.26784  0.63635  1.0000
  I   I39       1.0  0.12431  0.42847  0.74278  1.0000
  I   I40       1.0  0.75649  0.34797  0.40169  1.0000
  I   I41       1.0  0.09482  0.38916  0.05540  1.0000
  I   I42       1.0  0.51047  0.76151  0.45789  1.0000
  I   I43       1.0  0.35766  0.14727  0.71333  1.0000
  I   I44       1.0  0.77927  0.29728  0.33864  1.0000
  I   I45       1.0  0.67486  0.75642  0.36697  1.0000
  I   I46       1.0  0.33004  0.24084  0.99732  1.0000
  I   I47       1.0  0.94721  0.93051  0.91064  1.0000
  I   I48       1.0  0.99092  0.91987  0.56962  1.0000
  I   I49       1.0  0.00837  0.82943  0.25215  1.0000
  I   I50       1.0  0.45239  0.83455  0.64399  1.0000
  I   I51       1.0  0.46374  0.79742  0.75015  1.0000
  I   I52       1.0  0.66523  0.87910  0.89670  1.0000
  I   I53       1.0  0.41698  0.67653  0.83003  1.0000
  I   I54       1.0  0.40439  0.91460  0.88446  1.0000
  I   I55       1.0  0.94234  0.84679  0.17479  1.0000
  I   I56       1.0  0.27335  0.87427  0.45694  1.0000
  I   I57       1.0  0.29154  0.20087  0.05665  1.0000
  I   I58       1.0  0.47355  0.74987  0.40004  1.0000
  I   I59       1.0  0.19468  0.82466  0.56562  1.0000
  I   I60       1.0  0.88453  0.15128  0.99990  1.0000
  I   I61       1.0  0.83810  0.66931  0.75953  1.0000
  I   I62       1.0  0.89475  0.58423  0.65934  1.0000
  I   I63       1.0  0.00567  0.72864  0.97540  1.0000
  I   I64       1.0  0.23067  0.74617  0.47274  1.0000
  I   I65       1.0  0.48471  0.24183  0.67012  1.0000
  I   I66       1.0  0.40679  0.04108  0.12552  1.0000
  I   I67       1.0  0.70220  0.29713  0.93514  1.0000
  I   I68       1.0  0.07110  0.67832  0.93672  1.0000
  I   I69       1.0  0.02074  0.77187  0.55451  1.0000
  I   I70       1.0  0.26268  0.06796  0.45400  1.0000
  I   I71       1.0  0.17429  0.56753  0.51704  1.0000
  I   I72       1.0  0.92910  0.95030  0.01347  1.0000
  I   I73       1.0  0.66220  0.63924  0.01422  1.0000
  I   I74       1.0  0.09037  0.73003  0.66499  1.0000
  I   I75       1.0  0.12963  0.69360  0.59292  1.0000
  I   I76       1.0  0.83382  0.34242  0.99519  1.0000
  I   I77       1.0  0.92946  0.29818  0.03144  1.0000
  I   I78       1.0  0.75914  0.25457  0.21187  1.0000
  I   I79       1.0  0.55963  0.30355  0.86735  1.0000
  I   I80       1.0  0.77088  0.00672  0.68351  1.0000
  I   I81       1.0  0.51644  0.69798  0.02117  1.0000
  I   I82       1.0  0.69593  0.50846  0.77673  1.0000
  I   I83       1.0  0.02565  0.45823  0.33208  1.0000
  I   I84       1.0  0.20924  0.25345  0.56141  1.0000
  I   I85       1.0  0.13084  0.33992  0.86143  1.0000
  I   I86       1.0  0.39435  0.02495  0.00423  1.0000
  I   I87       1.0  0.98750  0.23644  0.58236  1.0000
  I   I88       1.0  0.48974  0.74319  0.28466  1.0000
  I   I89       1.0  0.77574  0.50864  0.27385  1.0000
  I   I90       1.0  0.07441  0.36212  0.02143  1.0000
  I   I91       1.0  0.79203  0.06722  0.46149  1.0000
  I   I92       1.0  0.29676  0.51298  0.16697  1.0000
  I   I93       1.0  0.79073  0.34410  0.32289  1.0000
  I   I94       1.0  0.00717  0.89057  0.49008  1.0000
  I   I95       1.0  0.86260  0.53631  0.03252  1.0000
  I   I96       1.0  0.57766  0.39770  0.74760  1.0000
  I   I97       1.0  0.13714  0.20262  0.53516  1.0000
  I   I98       1.0  0.78275  0.02769  0.58701  1.0000
  I   I99       1.0  0.52090  0.73173  0.75467  1.0000
  I   I100      1.0  0.24268  0.18246  0.76128  1.0000
  I   I101      1.0  0.13556  0.71130  0.04819  1.0000
  I   I102      1.0  0.38467  0.01229  0.65168  1.0000
  I   I103      1.0  0.88130  0.86545  0.15052  1.0000
  I   I104      1.0  0.44632  0.73156  0.08869  1.0000
  I   I105      1.0  0.16152  0.51454  0.58900  1.0000
  I   I106      1.0  0.71502  0.95771  0.95586  1.0000
  I   I107      1.0  0.54199  0.70246  0.34175  1.0000
  I   I108      1.0  0.64631  0.00018  0.95532  1.0000
  I   I109      1.0  0.92009  0.34405  0.08332  1.0000
  I   I110      1.0  0.84936  0.64554  0.83936  1.0000
  I   I111      1.0  0.03006  0.79831  0.88635  1.0000
  I   I112      1.0  0.65255  0.11277  0.79447  1.0000
  I   I113      1.0  0.54660  0.20162  0.70468  1.0000
  I   I114      1.0  0.20109  0.66069  0.54138  1.0000
  I   I115      1.0  0.35364  0.12441  0.30428  1.0000
  I   I116      1.0  0.32500  0.16356  0.38415  1.0000
  I   I117      1.0  0.63551  0.16501  0.04092  1.0000
  I   I118      1.0  0.56391  0.43473  0.86748  1.0000
  I   I119      1.0  0.34958  0.17241  0.27743  1.0000
  I   I120      1.0  0.97892  0.93114  0.00700  1.0000
  I   I121      1.0  0.65624  0.35945  0.23192  1.0000
  I   I122      1.0  0.65764  0.54676  0.01201  1.0000
  I   I123      1.0  0.10141  0.67911  0.20048  1.0000
  I   I124      1.0  0.17539  0.00539  0.24821  1.0000
  I   I125      1.0  0.50910  0.04766  0.57430  1.0000
  I   I126      1.0  0.01409  0.09083  0.93051  1.0000
  I   I127      1.0  0.55545  0.35039  0.91700  1.0000
  I   I128      1.0  0.15859  0.19846  0.74268  1.0000
  I   I129      1.0  0.11944  0.67578  0.41597  1.0000
  I   I130      1.0  0.28098  0.23388  0.57827  1.0000
  I   I131      1.0  0.70705  0.54958  0.88037  1.0000
  I   I132      1.0  0.53760  0.82095  0.23389  1.0000
  I   I133      1.0  0.96953  0.27253  0.69321  1.0000
  I   I134      1.0  0.35935  0.45764  0.69765  1.0000
  I   I135      1.0  0.38614  0.07734  0.03322  1.0000
  I   I136      1.0  0.81882  0.85347  0.51389  1.0000
  I   I137      1.0  0.44847  0.38709  0.10121  1.0000
  I   I138      1.0  0.05552  0.50844  0.22515  1.0000
  I   I139      1.0  0.80048  0.12516  0.41456  1.0000
  I   I140      1.0  0.35557  0.49565  0.19014  1.0000
  I   I141      1.0  0.44443  0.57518  0.71494  1.0000
  I   I142      1.0  0.95081  0.95500  0.54135  1.0000
  I   I143      1.0  0.11628  0.18176  0.59898  1.0000
  I   I144      1.0  0.61353  0.39319  0.82745  1.0000
  I   I145      1.0  0.81325  0.02439  0.69119  1.0000
  I   I146      1.0  0.43945  0.79592  0.64698  1.0000
  I   I147      1.0  0.12390  0.14686  0.52176  1.0000
  I   I148      1.0  0.42035  0.44259  0.06529  1.0000
  I   I149      1.0  0.36006  0.98117  0.68870  1.0000
  I   I150      1.0  0.50626  0.51446  0.02501  1.0000
  I   I151      1.0  0.48116  0.75341  0.07434  1.0000
  I   I152      1.0  0.26710  0.92989  0.35748  1.0000
  I   I153      1.0  0.11216  0.51258  0.63313  1.0000
  I   I154      1.0  0.06193  0.75890  0.29551  1.0000
  I   I155      1.0  0.20660  0.84506  0.09971  1.0000
  I   I156      1.0  0.84386  0.21081  0.00271  1.0000
  I   I157      1.0  0.82136  0.32807  0.10601  1.0000
  I   I158      1.0  0.03437  0.77494  0.98518  1.0000
  I   I159      1.0  0.68770  0.07099  0.53424  1.0000
  I   I160      1.0  0.68599  0.06563  0.84022  1.0000
  I   I161      1.0  0.26746  0.64139  0.57370  1.0000
  I   I162      1.0  0.60353  0.14523  0.89997  1.0000
  I   I163      1.0  0.69070  0.30046  0.82348  1.0000
  I   I164      1.0  0.67724  0.11097  0.06552  1.0000
  I   I165      1.0  0.25403  0.88592  0.36239  1.0000
  I   I166      1.0  0.49688  0.43768  0.86093  1.0000
  I   I167      1.0  0.17007  0.57148  0.63499  1.0000
  I   I168      1.0  0.63104  0.27614  0.53221  1.0000
  I   I169      1.0  0.75674  0.46964  0.09942  1.0000
  I   I170      1.0  0.70180  0.49336  0.05596  1.0000
  I   I171      1.0  0.63556  0.69898  0.98037  1.0000
  I   I172      1.0  0.49033  0.00636  0.53404  1.0000
  I   I173      1.0  0.06376  0.05963  0.87492  1.0000
  I   I174      1.0  0.12092  0.03315  0.19487  1.0000
  I   I175      1.0  0.73587  0.24485  0.11595  1.0000
  I   I176      1.0  0.49817  0.73684  0.15245  1.0000
  I   I177      1.0  0.40585  0.86946  0.33441  1.0000
  I   I178      1.0  0.73615  0.48771  0.86819  1.0000
  I   I179      1.0  0.02153  0.42318  0.26733  1.0000
  I   I180      1.0  0.25127  0.23347  0.50007  1.0000
  I   I181      1.0  0.12436  0.39622  0.84260  1.0000
  I   I182      1.0  0.94110  0.83251  0.05484  1.0000
  I   I183      1.0  0.71730  0.77013  0.20707  1.0000
  I   I184      1.0  0.19458  0.70384  0.01241  1.0000
  I   I185      1.0  0.02297  0.54521  0.29105  1.0000
  I   I186      1.0  0.78965  0.82586  0.48440  1.0000
  I   I187      1.0  0.32362  0.55412  0.16541  1.0000
  I   I188      1.0  0.73050  0.35483  0.29635  1.0000
  I   I189      1.0  0.70629  0.80366  0.30539  1.0000
  I   I190      1.0  0.80681  0.57923  0.00034  1.0000
  I   I191      1.0  0.03191  0.41587  0.96379  1.0000
  I   I192      1.0  0.17529  0.14605  0.56791  1.0000
  I   I193      1.0  0.98125  0.03805  0.82506  1.0000
  I   I194      1.0  0.05189  0.43318  0.04833  1.0000
  I   I195      1.0  0.15556  0.16323  0.47069  1.0000
  I   I196      1.0  0.21581  0.15705  0.72934  1.0000
  I   I197      1.0  0.38771  0.09624  0.74371  1.0000
  I   I198      1.0  0.53959  0.51866  0.94207  1.0000
  I   I199      1.0  0.50143  0.68660  0.09762  1.0000
  I   I200      1.0  0.73267  0.90531  0.74016  1.0000
  I   I201      1.0  0.10829  0.55935  0.57361  1.0000
  I   I202      1.0  0.25318  0.79806  0.58402  1.0000
  I   I203      1.0  0.05431  0.72931  0.60931  1.0000
  I   I204      1.0  0.66918  0.94974  0.01611  1.0000
  I   I205      1.0  0.88019  0.60610  0.76185  1.0000
  I   I206      1.0  0.18220  0.23140  0.74739  1.0000
  I   I207      1.0  0.85457  0.28925  0.03537  1.0000
  I   I208      1.0  0.17935  0.78131  0.51613  1.0000
  I   I209      1.0  0.21650  0.67807  0.62994  1.0000
  I   I210      1.0  0.41721  0.86926  0.42590  1.0000
  I   I211      1.0  0.24092  0.09202  0.55721  1.0000
  I   I212      1.0  0.03149  0.66256  0.94523  1.0000
  I   I213      1.0  0.04187  0.79229  0.62117  1.0000
  I   I214      1.0  0.52190  0.45478  0.76777  1.0000
  I   I215      1.0  0.18701  0.60580  0.57863  1.0000
  I   I216      1.0  0.46367  0.53438  0.80369  1.0000
  I   I217      1.0  0.68533  0.54855  0.10475  1.0000
  I   I218      1.0  0.11694  0.65398  0.08861  1.0000
  I   I219      1.0  0.67212  0.37837  0.34061  1.0000
  I   I220      1.0  0.88708  0.33616  0.99189  1.0000
  I   I221      1.0  0.01267  0.00299  0.90585  1.0000
  I   I222      1.0  0.46213  0.05842  0.50081  1.0000
  I   I223      1.0  0.80309  0.21333  0.17312  1.0000
  I   I224      1.0  0.54304  0.72611  0.09132  1.0000
  I   I225      1.0  0.53183  0.31782  0.95734  1.0000
  I   I226      1.0  0.68219  0.51642  0.87067  1.0000
  I   I227      1.0  0.49824  0.88351  0.23445  1.0000
  I   I228      1.0  0.21808  0.22307  0.42952  1.0000
  I   I229      1.0  0.23208  0.68308  0.49731  1.0000
  I   I230      1.0  0.39301  0.43646  0.79782  1.0000
  I   I231      1.0  0.96324  0.29453  0.59400  1.0000
  I   I232      1.0  0.12220  0.25715  0.75680  1.0000
  I   I233      1.0  0.80249  0.61218  0.14591  1.0000
  I   I234      1.0  0.14064  0.32451  0.04273  1.0000
  I   I235      1.0  0.04132  0.84991  0.30447  1.0000
  I   I236      1.0  0.47172  0.52222  0.67001  1.0000
  I   I237      1.0  0.80795  0.10335  0.50627  1.0000
  I   I238      1.0  0.34096  0.20500  0.06776  1.0000
  I   I239      1.0  0.51219  0.48469  0.84952  1.0000
  I   I240      1.0  0.04710  0.90714  0.48106  1.0000
  I   I241      1.0  0.81980  0.97265  0.63611  1.0000
  I   I242      1.0  0.48918  0.75799  0.65848  1.0000
  I   I243      1.0  0.84066  0.60515  0.04214  1.0000
  I   I244      1.0  0.17340  0.67322  0.98576  1.0000
  I   I245      1.0  0.44349  0.62361  0.75709  1.0000
  I   I246      1.0  0.52655  0.55559  0.03378  1.0000
  I   I247      1.0  0.97209  0.87210  0.12486  1.0000
  I   I248      1.0  0.31919  0.85007  0.42049  1.0000
  I   I249      1.0  0.12676  0.56972  0.65162  1.0000
  I   I250      1.0  0.25702  0.73973  0.56181  1.0000
  I   I251      1.0  0.20525  0.79848  0.03865  1.0000
  I   I252      1.0  0.88544  0.19310  0.91292  1.0000
  I   I253      1.0  0.87841  0.67345  0.82608  1.0000
  I   I254      1.0  0.13781  0.23389  0.85408  1.0000
  I   I255      1.0  0.67443  0.02835  0.48809  1.0000
  I   I256      1.0  0.52469  0.24169  0.61992  1.0000
  I   I257      1.0  0.07800  0.37987  0.81408  1.0000
  I   I258      1.0  0.66192  0.11629  0.90500  1.0000
  I   I259      1.0  0.29102  0.17395  0.28796  1.0000
  I   I260      1.0  0.68178  0.16240  0.11434  1.0000
  I   I261      1.0  0.30863  0.88543  0.50707  1.0000
  I   I262      1.0  0.53654  0.40799  0.81439  1.0000
  I   I263      1.0  0.19647  0.65567  0.20912  1.0000
  I   I264      1.0  0.20361  0.27582  0.48192  1.0000
  I   I265      1.0  0.74581  0.52178  0.06608  1.0000
  I   I266      1.0  0.07381  0.73298  0.51665  1.0000
  I   I267      1.0  0.61550  0.40233  0.29839  1.0000
  I   I268      1.0  0.54512  0.04191  0.95304  1.0000
  I   I269      1.0  0.00892  0.07752  0.83241  1.0000
  I   I270      1.0  0.50306  0.10525  0.97626  1.0000
  I   I271      1.0  0.76378  0.20165  0.17060  1.0000
  I   I272      1.0  0.08961  0.64678  0.43171  1.0000
  I   I273      1.0  0.59710  0.30651  0.98476  1.0000
  I   I274      1.0  0.75680  0.65546  0.16981  1.0000
  I   I275      1.0  0.55749  0.84989  0.28039  1.0000
  I   I276      1.0  0.24903  0.20151  0.60240  1.0000
  I   I277      1.0  0.74594  0.52281  0.83028  1.0000
  I   I278      1.0  0.41525  0.43618  0.68840  1.0000
  I   I279      1.0  0.65864  0.80685  0.28761  1.0000
  I   I280      1.0  0.47511  0.42850  0.10996  1.0000
  I   I281      1.0  0.75177  0.61572  0.09800  1.0000
  I   I282      1.0  0.84658  0.78645  0.50572  1.0000
  I   I283      1.0  0.04504  0.75990  0.21212  1.0000
  I   I284      1.0  0.67484  0.20487  0.60362  1.0000
  I   I285      1.0  0.66873  0.82789  0.20824  1.0000
  I   I286      1.0  0.30288  0.21647  0.96743  1.0000
  I   I287      1.0  0.92308  0.90837  0.99272  1.0000
  I   I288      1.0  0.01129  0.95990  0.50184  1.0000
  I   I289      1.0  0.05525  0.80219  0.22086  1.0000
  I   I290      1.0  0.12866  0.34704  0.12877  1.0000
  I   I291      1.0  0.54979  0.76409  0.72993  1.0000
  I   I292      1.0  0.47120  0.39927  0.00823  1.0000
  I   I293      1.0  0.42520  0.67284  0.71621  1.0000
  I   I294      1.0  0.41114  0.89392  0.78511  1.0000
  I   I295      1.0  0.92523  0.81125  0.11386  1.0000
  I   I296      1.0  0.77853  0.84551  0.78639  1.0000
  I   I297      1.0  0.20181  0.51758  0.63441  1.0000
  I   I298      1.0  0.41741  0.12588  0.76366  1.0000
  I   I299      1.0  0.21681  0.72291  0.56250  1.0000
  I   I300      1.0  0.43113  0.52683  0.73902  1.0000
  I   I301      1.0  0.70914  0.04783  0.44349  1.0000
  I   I302      1.0  0.92852  0.59657  0.67192  1.0000
  I   I303      1.0  0.49306  0.69735  0.35252  1.0000
  I   I304      1.0  0.62615  0.08486  0.89573  1.0000
  I   I305      1.0  0.20701  0.77414  0.60980  1.0000
  I   I306      1.0  0.87535  0.84945  0.06499  1.0000
  I   I307      1.0  0.75152  0.29129  0.88765  1.0000
  I   I308      1.0  0.08250  0.76055  0.91415  1.0000
  I   I309      1.0  0.27457  0.92514  0.46317  1.0000
  I   I310      1.0  0.00976  0.79870  0.33204  1.0000
  I   I311      1.0  0.23300  0.66522  0.17339  1.0000
  I   I312      1.0  0.03922  0.90563  0.98527  1.0000
  I   I313      1.0  0.65602  0.41565  0.24568  1.0000
  I   I314      1.0  0.71804  0.51127  0.98486  1.0000
  I   I315      1.0  0.11223  0.62172  0.18625  1.0000
  I   I316      1.0  0.52287  0.03488  0.46206  1.0000
  I   I317      1.0  0.55389  0.09297  0.94095  1.0000
  I   I318      1.0  0.04352  0.02140  0.85092  1.0000
  I   I319      1.0  0.46011  0.82809  0.40602  1.0000
  I   I320      1.0  0.21802  0.20005  0.68920  1.0000
  I   I321      1.0  0.46884  0.72889  0.20260  1.0000
  I   I322      1.0  0.79169  0.51607  0.37334  1.0000
  I   I323      1.0  0.07766  0.41337  0.30905  1.0000
  I   I324      1.0  0.17719  0.24030  0.50689  1.0000
  I   I325      1.0  0.16156  0.35068  0.80080  1.0000
  I   I326      1.0  0.92288  0.90758  0.13732  1.0000
  I   I327      1.0  0.72228  0.74586  0.38443  1.0000
  I   I328      1.0  0.51612  0.75413  0.36058  1.0000
  I   I329      1.0  0.06500  0.55590  0.31621  1.0000
  I   I330      1.0  0.08020  0.33959  0.11121  1.0000
  I   I331      1.0  0.70152  0.75749  0.28007  1.0000
  I   I332      1.0  0.42105  0.10530  0.65846  1.0000
  I   I333      1.0  0.79789  0.54971  0.28743  1.0000
  I   I334      1.0  0.94882  0.90355  0.51698  1.0000
  I   I335      1.0  0.86412  0.57794  0.94693  1.0000
  I   I336      1.0  0.58052  0.44784  0.77760  1.0000
  I   I337      1.0  0.02001  0.83344  0.39108  1.0000
  I   I338      1.0  0.08966  0.39484  0.94930  1.0000
  I   I339      1.0  0.54899  0.73375  0.65264  1.0000
  I   I340      1.0  0.68738  0.90552  0.84122  1.0000
  I   I341      1.0  0.39477  0.99665  0.76034  1.0000
  I   I342      1.0  0.35703  0.94638  0.83110  1.0000
  I   I343      1.0  0.42848  0.78008  0.16012  1.0000
  I   I344      1.0  0.74156  0.89827  0.84798  1.0000
  I   I345      1.0  0.17597  0.54934  0.71888  1.0000
  I   I346      1.0  0.27329  0.03823  0.54124  1.0000
  I   I347      1.0  0.22886  0.80018  0.49372  1.0000
  I   I348      1.0  0.90469  0.18808  0.02611  1.0000
  I   I349      1.0  0.65941  0.09755  0.44437  1.0000
  I   I350      1.0  0.86242  0.65074  0.67175  1.0000
  I   I351      1.0  0.18043  0.19126  0.82072  1.0000
  I   I352      1.0  0.63249  0.06787  0.79380  1.0000
  I   I353      1.0  0.51858  0.18223  0.62526  1.0000
  I   I354      1.0  0.90670  0.88300  0.07358  1.0000
  I   I355      1.0  0.73283  0.24800  0.85063  1.0000
  I   I356      1.0  0.68748  0.15047  0.00254  1.0000
  I   I357      1.0  0.09897  0.75425  0.58600  1.0000
  I   I358      1.0  0.64403  0.25527  0.63130  1.0000
  I   I359      1.0  0.18558  0.71555  0.20184  1.0000
  I   I360      1.0  0.03209  0.87880  0.90708  1.0000
  I   I361      1.0  0.69908  0.66013  0.99775  1.0000
  I   I362      1.0  0.76326  0.45829  0.00366  1.0000
  I   I363      1.0  0.05772  0.79492  0.52107  1.0000
  I   I364      1.0  0.12408  0.02542  0.28190  1.0000
  I   I365      1.0  0.85870  0.35452  0.08134  1.0000
  I   I366      1.0  0.98181  0.05842  0.93259  1.0000
  I   I367      1.0  0.44346  0.89439  0.36660  1.0000
  I   I368      1.0  0.72969  0.85660  0.89506  1.0000
  I   I369      1.0  0.14708  0.62693  0.51006  1.0000
  I   I370      1.0  0.75824  0.59708  0.20917  1.0000
  I   I371      1.0  0.06846  0.43740  0.22040  1.0000
  I   I372      1.0  0.63937  0.22663  0.51314  1.0000
  I   I373      1.0  0.10665  0.38646  0.74507  1.0000
  I   I374      1.0  0.38994  0.39898  0.71309  1.0000
  I   I375      1.0  0.68560  0.80500  0.40584  1.0000
  I   I376      1.0  0.19857  0.65757  0.10033  1.0000
  I   I377      1.0  0.09091  0.49824  0.31413  1.0000
  I   I378      1.0  0.83403  0.80870  0.41082  1.0000
  I   I379      1.0  0.75001  0.12953  0.46158  1.0000
  I   I380      1.0  0.31745  0.53216  0.26916  1.0000
  I   I381      1.0  0.69954  0.99324  0.02726  1.0000
  I   I382      1.0  0.97903  0.94273  0.45046  1.0000
  I   I383      1.0  0.27488  0.26021  0.04789  1.0000
  I   I384      1.0  0.98378  0.88253  0.96269  1.0000
