data_image0
_chemical_formula_structural       Ti96I384
_chemical_formula_sum              "Ti96 I384"
_cell_length_a       45.5002
_cell_length_b       45.2252
_cell_length_c       22.7962
_cell_angle_alpha    88.7757
_cell_angle_beta     88.7757
_cell_angle_gamma    62.1586

_space_group_name_H-M_alt    "P 1"
_space_group_IT_number       1

loop_
  _space_group_symop_operation_xyz
  'x, y, z'

loop_
  _atom_site_type_symbol
  _atom_site_label
  _atom_site_symmetry_multiplicity
  _atom_site_fract_x
  _atom_site_fract_y
  _atom_site_fract_z
  _atom_site_occupancy
  Ti  Ti1       1.0  0.30768  0.09463  0.70156  1.0000
  Ti  Ti2       1.0  0.19365  0.02885  0.13515  1.0000
  Ti  Ti3       1.0  0.31234  0.06038  0.34822  1.0000
  Ti  Ti4       1.0  0.24792  0.28392  0.23664  1.0000
  Ti  Ti5       1.0  0.18799  0.30038  0.60207  1.0000
  Ti  Ti6       1.0  0.23622  0.26721  0.90885  1.0000
  Ti  Ti7       1.0  0.06734  0.58670  0.48906  1.0000
  Ti  Ti8       1.0  0.90613  0.77908  0.93756  1.0000
  Ti  Ti9       1.0  0.04437  0.70380  0.22332  1.0000
  Ti  Ti10      1.0  0.98029  0.91047  0.20592  1.0000
  Ti  Ti11      1.0  0.15633  0.87682  0.62029  1.0000
  Ti  Ti12      1.0  0.14561  0.83494  0.93468  1.0000
  Ti  Ti13      1.0  0.44960  0.15035  0.30016  1.0000
  Ti  Ti14      1.0  0.46188  0.11164  0.64284  1.0000
  Ti  Ti15      1.0  0.46395  0.12087  0.96625  1.0000
  Ti  Ti16      1.0  0.35177  0.41562  0.81253  1.0000
  Ti  Ti17      1.0  0.25324  0.46671  0.08374  1.0000
  Ti  Ti18      1.0  0.39118  0.42002  0.48945  1.0000
  Ti  Ti19      1.0  0.30566  0.81803  0.33048  1.0000
  Ti  Ti20      1.0  0.39874  0.66699  0.97267  1.0000
  Ti  Ti21      1.0  0.26811  0.66898  0.35224  1.0000
  Ti  Ti22      1.0  0.29076  0.89852  0.71831  1.0000
  Ti  Ti23      1.0  0.46919  0.88242  0.07061  1.0000
  Ti  Ti24      1.0  0.47290  0.79533  0.58369  1.0000
  Ti  Ti25      1.0  0.66103  0.19682  0.44458  1.0000
  Ti  Ti26      1.0  0.66388  0.17601  0.79499  1.0000
  Ti  Ti27      1.0  0.68062  0.17391  0.13103  1.0000
  Ti  Ti28      1.0  0.60447  0.40001  0.11047  1.0000
  Ti  Ti29      1.0  0.72343  0.35633  0.50970  1.0000
  Ti  Ti30      1.0  0.65366  0.37770  0.81008  1.0000
  Ti  Ti31      1.0  0.60954  0.63890  0.25543  1.0000
  Ti  Ti32      1.0  0.73946  0.51553  0.65583  1.0000
  Ti  Ti33      1.0  0.69164  0.55441  0.97489  1.0000
  Ti  Ti34      1.0  0.73523  0.77010  0.19050  1.0000
  Ti  Ti35      1.0  0.73311  0.76203  0.53525  1.0000
  Ti  Ti36      1.0  0.71948  0.78599  0.88883  1.0000
  Ti  Ti37      1.0  0.87569  0.13026  0.16486  1.0000
  Ti  Ti38      1.0  0.85711  0.13706  0.48687  1.0000
  Ti  Ti39      1.0  0.87440  0.12107  0.83114  1.0000
  Ti  Ti40      1.0  0.99997  0.26652  0.02543  1.0000
  Ti  Ti41      1.0  0.99624  0.20171  0.39681  1.0000
  Ti  Ti42      1.0  0.09855  0.12426  0.64895  1.0000
  Ti  Ti43      1.0  0.95103  0.47423  0.29241  1.0000
  Ti  Ti44      1.0  0.93411  0.46562  0.63869  1.0000
  Ti  Ti45      1.0  0.89551  0.52572  0.93606  1.0000
  Ti  Ti46      1.0  0.74915  0.91039  0.24182  1.0000
  Ti  Ti47      1.0  0.71775  0.96562  0.53655  1.0000
  Ti  Ti48      1.0  0.71323  0.98194  0.86083  1.0000
  Ti  Ti49      1.0  0.29276  0.11389  0.53089  1.0000
  Ti  Ti50      1.0  0.13582  0.03097  0.01883  1.0000
  Ti  Ti51      1.0  0.21172  0.09502  0.26805  1.0000
  Ti  Ti52      1.0  0.18572  0.31552  0.08235  1.0000
  Ti  Ti53      1.0  0.12838  0.34324  0.47031  1.0000
  Ti  Ti54      1.0  0.13918  0.34049  0.78084  1.0000
  Ti  Ti55      1.0  0.03874  0.68261  0.40532  1.0000
  Ti  Ti56      1.0  0.94887  0.79368  0.79210  1.0000
  Ti  Ti57      1.0  0.94367  0.76009  0.15994  1.0000
  Ti  Ti58      1.0  0.99450  0.89216  0.03046  1.0000
  Ti  Ti59      1.0  0.92187  0.94471  0.34024  1.0000
  Ti  Ti60      1.0  0.12417  0.84335  0.74820  1.0000
  Ti  Ti61      1.0  0.40805  0.19091  0.11846  1.0000
  Ti  Ti62      1.0  0.41836  0.22072  0.45431  1.0000
  Ti  Ti63      1.0  0.42356  0.18219  0.78732  1.0000
  Ti  Ti64      1.0  0.34645  0.40963  0.62420  1.0000
  Ti  Ti65      1.0  0.25658  0.46523  0.88504  1.0000
  Ti  Ti66      1.0  0.18511  0.47316  0.20772  1.0000
  Ti  Ti67      1.0  0.26262  0.76456  0.30996  1.0000
  Ti  Ti68      1.0  0.32023  0.71179  0.88819  1.0000
  Ti  Ti69      1.0  0.28566  0.59300  0.25441  1.0000
  Ti  Ti70      1.0  0.37359  0.85314  0.63693  1.0000
  Ti  Ti71      1.0  0.48959  0.86831  0.89083  1.0000
  Ti  Ti72      1.0  0.47896  0.88350  0.24255  1.0000
  Ti  Ti73      1.0  0.61014  0.19733  0.28075  1.0000
  Ti  Ti74      1.0  0.61576  0.19270  0.62986  1.0000
  Ti  Ti75      1.0  0.61692  0.17778  0.95645  1.0000
  Ti  Ti76      1.0  0.58609  0.37246  0.94006  1.0000
  Ti  Ti77      1.0  0.53181  0.42457  0.28083  1.0000
  Ti  Ti78      1.0  0.62593  0.40151  0.61958  1.0000
  Ti  Ti79      1.0  0.60078  0.64454  0.06508  1.0000
  Ti  Ti80      1.0  0.54876  0.63529  0.37417  1.0000
  Ti  Ti81      1.0  0.67030  0.55773  0.78475  1.0000
  Ti  Ti82      1.0  0.65317  0.80516  0.04832  1.0000
  Ti  Ti83      1.0  0.66669  0.80412  0.36489  1.0000
  Ti  Ti84      1.0  0.67773  0.80602  0.70161  1.0000
  Ti  Ti85      1.0  0.83923  0.19269  0.99033  1.0000
  Ti  Ti86      1.0  0.82802  0.20350  0.31210  1.0000
  Ti  Ti87      1.0  0.84461  0.18698  0.65718  1.0000
  Ti  Ti88      1.0  0.96504  0.32324  0.88403  1.0000
  Ti  Ti89      1.0  0.93217  0.29743  0.30287  1.0000
  Ti  Ti90      1.0  0.02522  0.18258  0.57394  1.0000
  Ti  Ti91      1.0  0.88591  0.59933  0.06627  1.0000
  Ti  Ti92      1.0  0.91222  0.50048  0.45152  1.0000
  Ti  Ti93      1.0  0.88726  0.55856  0.76314  1.0000
  Ti  Ti94      1.0  0.65904  0.99889  0.02841  1.0000
  Ti  Ti95      1.0  0.66883  0.99494  0.36663  1.0000
  Ti  Ti96      1.0  0.64740  0.00945  0.71610  1.0000
  I   I1        1.0  0.14475  0.97479  0.97098  1.0000
  I   I2        1.0  0.17786  0.05229  0.25185  1.0000
  I   I3        1.0  0.28731  0.05538  0.45668  1.0000
  I   I4        1.0  0.09660  0.31264  0.41306  1.0000
  I   I5        1.0  0.13281  0.30794  0.66938  1.0000
  I   I6        1.0  0.18239  0.27402  0.98865  1.0000
  I   I7        1.0  0.96908  0.74858  0.70483  1.0000
  I   I8        1.0  0.84695  0.81652  0.97733  1.0000
  I   I9        1.0  0.01397  0.67456  0.28790  1.0000
  I   I10       1.0  0.90951  0.94988  0.22316  1.0000
  I   I11       1.0  0.16466  0.81140  0.63900  1.0000
  I   I12       1.0  0.05130  0.84065  0.99203  1.0000
  I   I13       1.0  0.39921  0.18240  0.38947  1.0000
  I   I14       1.0  0.39963  0.15872  0.69968  1.0000
  I   I15       1.0  0.40210  0.16393  0.01567  1.0000
  I   I16       1.0  0.28810  0.40879  0.82350  1.0000
  I   I17       1.0  0.18970  0.47145  0.07256  1.0000
  I   I18       1.0  0.40301  0.35458  0.58762  1.0000
  I   I19       1.0  0.39605  0.67967  0.08626  1.0000
  I   I20       1.0  0.23923  0.60956  0.17723  1.0000
  I   I21       1.0  0.21434  0.73011  0.34714  1.0000
  I   I22       1.0  0.47040  0.82488  0.86123  1.0000
  I   I23       1.0  0.42016  0.90506  0.99106  1.0000
  I   I24       1.0  0.42801  0.79097  0.66569  1.0000
  I   I25       1.0  0.62910  0.16563  0.51279  1.0000
  I   I26       1.0  0.62002  0.15316  0.85205  1.0000
  I   I27       1.0  0.64412  0.14646  0.20618  1.0000
  I   I28       1.0  0.56811  0.37095  0.19653  1.0000
  I   I29       1.0  0.65430  0.37407  0.49936  1.0000
  I   I30       1.0  0.61281  0.34334  0.82736  1.0000
  I   I31       1.0  0.53809  0.65952  0.25944  1.0000
  I   I32       1.0  0.69220  0.49911  0.72697  1.0000
  I   I33       1.0  0.61338  0.58976  0.00293  1.0000
  I   I34       1.0  0.68634  0.75887  0.27651  1.0000
  I   I35       1.0  0.67237  0.77370  0.59869  1.0000
  I   I36       1.0  0.65628  0.77936  0.92452  1.0000
  I   I37       1.0  0.80681  0.18288  0.21762  1.0000
  I   I38       1.0  0.80969  0.18531  0.56226  1.0000
  I   I39       1.0  0.81552  0.17757  0.88583  1.0000
  I   I40       1.0  0.95088  0.31392  0.19802  1.0000
  I   I41       1.0  0.98054  0.17327  0.49137  1.0000
  I   I42       1.0  0.93608  0.30724  0.80483  1.0000
  I   I43       1.0  0.90620  0.46285  0.36669  1.0000
  I   I44       1.0  0.86618  0.53107  0.67918  1.0000
  I   I45       1.0  0.84243  0.59348  0.97981  1.0000
  I   I46       1.0  0.68003  0.94740  0.26866  1.0000
  I   I47       1.0  0.64918  0.97962  0.60179  1.0000
  I   I48       1.0  0.67623  0.95622  0.92441  1.0000
  I   I49       1.0  0.29928  0.16320  0.56644  1.0000
  I   I50       1.0  0.13052  0.08272  0.09897  1.0000
  I   I51       1.0  0.25043  0.12026  0.30202  1.0000
  I   I52       1.0  0.22595  0.33449  0.15075  1.0000
  I   I53       1.0  0.16372  0.36286  0.54548  1.0000
  I   I54       1.0  0.16562  0.35608  0.87300  1.0000
  I   I55       1.0  0.06115  0.68198  0.51275  1.0000
  I   I56       1.0  0.89997  0.84369  0.87492  1.0000
  I   I57       1.0  0.98763  0.77223  0.22445  1.0000
  I   I58       1.0  0.96991  0.94890  0.09164  1.0000
  I   I59       1.0  0.89034  0.90903  0.36110  1.0000
  I   I60       1.0  0.08916  0.87446  0.85068  1.0000
  I   I61       1.0  0.42303  0.21495  0.22621  1.0000
  I   I62       1.0  0.47040  0.20420  0.52275  1.0000
  I   I63       1.0  0.45430  0.18152  0.88649  1.0000
  I   I64       1.0  0.31434  0.45946  0.70842  1.0000
  I   I65       1.0  0.23929  0.51205  0.98786  1.0000
  I   I66       1.0  0.21248  0.45129  0.30900  1.0000
  I   I67       1.0  0.32553  0.75949  0.25388  1.0000
  I   I68       1.0  0.36457  0.73689  0.95042  1.0000
  I   I69       1.0  0.28374  0.65275  0.22652  1.0000
  I   I70       1.0  0.32528  0.91825  0.62509  1.0000
  I   I71       1.0  0.49587  0.90475  0.98373  1.0000
  I   I72       1.0  0.49630  0.82825  0.30328  1.0000
  I   I73       1.0  0.59631  0.22774  0.39021  1.0000
  I   I74       1.0  0.61868  0.22985  0.72921  1.0000
  I   I75       1.0  0.61794  0.20586  0.06667  1.0000
  I   I76       1.0  0.54888  0.40958  0.04724  1.0000
  I   I77       1.0  0.54560  0.38301  0.37160  1.0000
  I   I78       1.0  0.59973  0.42312  0.72681  1.0000
  I   I79       1.0  0.59883  0.68313  0.15245  1.0000
  I   I80       1.0  0.56558  0.63278  0.48512  1.0000
  I   I81       1.0  0.67068  0.60186  0.86840  1.0000
  I   I82       1.0  0.66349  0.83182  0.14325  1.0000
  I   I83       1.0  0.68733  0.82461  0.45834  1.0000
  I   I84       1.0  0.67217  0.83576  0.81486  1.0000
  I   I85       1.0  0.87105  0.18588  0.10066  1.0000
  I   I86       1.0  0.85416  0.20051  0.42117  1.0000
  I   I87       1.0  0.89105  0.17156  0.74816  1.0000
  I   I88       1.0  0.99934  0.32893  0.97698  1.0000
  I   I89       1.0  0.92743  0.26704  0.41476  1.0000
  I   I90       1.0  0.05573  0.20571  0.65379  1.0000
  I   I91       1.0  0.89733  0.57812  0.17632  1.0000
  I   I92       1.0  0.91481  0.53358  0.54792  1.0000
  I   I93       1.0  0.91816  0.56251  0.86401  1.0000
  I   I94       1.0  0.69362  0.99292  0.11755  1.0000
  I   I95       1.0  0.67843  0.02484  0.46707  1.0000
  I   I96       1.0  0.64530  0.03835  0.82296  1.0000
  I   I97       1.0  0.33009  0.09732  0.42638  1.0000
  I   I98       1.0  0.27283  0.14969  0.76290  1.0000
  I   I99       1.0  0.23021  0.06426  0.16020  1.0000
  I   I100      1.0  0.23425  0.31246  0.99034  1.0000
  I   I101      1.0  0.19420  0.30574  0.31113  1.0000
  I   I102      1.0  0.18868  0.33901  0.70637  1.0000
  I   I103      1.0  0.07040  0.71493  0.33755  1.0000
  I   I104      1.0  0.02791  0.59791  0.57897  1.0000
  I   I105      1.0  0.93390  0.78909  0.04863  1.0000
  I   I106      1.0  0.12682  0.87412  0.02365  1.0000
  I   I107      1.0  0.97115  0.95878  0.29117  1.0000
  I   I108      1.0  0.17096  0.87255  0.74331  1.0000
  I   I109      1.0  0.47498  0.13858  0.08431  1.0000
  I   I110      1.0  0.48006  0.17835  0.36512  1.0000
  I   I111      1.0  0.48472  0.14442  0.71626  1.0000
  I   I112      1.0  0.39090  0.44090  0.60548  1.0000
  I   I113      1.0  0.31666  0.46788  0.88345  1.0000
  I   I114      1.0  0.22739  0.50926  0.17831  1.0000
  I   I115      1.0  0.31486  0.69343  0.34142  1.0000
  I   I116      1.0  0.27108  0.86458  0.40438  1.0000
  I   I117      1.0  0.38020  0.66721  0.85047  1.0000
  I   I118      1.0  0.42545  0.86975  0.63270  1.0000
  I   I119      1.0  0.23181  0.92983  0.66609  1.0000
  I   I120      1.0  0.44356  0.93494  0.14123  1.0000
  I   I121      1.0  0.65602  0.21734  0.22240  1.0000
  I   I122      1.0  0.64508  0.23069  0.54537  1.0000
  I   I123      1.0  0.65404  0.20854  0.90262  1.0000
  I   I124      1.0  0.60207  0.42154  0.88664  1.0000
  I   I125      1.0  0.58045  0.43762  0.21161  1.0000
  I   I126      1.0  0.68657  0.40599  0.60116  1.0000
  I   I127      1.0  0.67382  0.61069  0.05196  1.0000
  I   I128      1.0  0.59137  0.69427  0.32680  1.0000
  I   I129      1.0  0.74111  0.53873  0.76933  1.0000
  I   I130      1.0  0.69236  0.82986  0.97783  1.0000
  I   I131      1.0  0.72858  0.81035  0.27610  1.0000
  I   I132      1.0  0.72680  0.80694  0.62299  1.0000
  I   I133      1.0  0.89944  0.12971  0.93601  1.0000
  I   I134      1.0  0.90376  0.13035  0.27112  1.0000
  I   I135      1.0  0.89373  0.13119  0.59069  1.0000
  I   I136      1.0  0.15749  0.12070  0.66436  1.0000
  I   I137      1.0  0.04657  0.26744  0.08758  1.0000
  I   I138      1.0  0.00806  0.24054  0.49591  1.0000
  I   I139      1.0  0.93290  0.53453  0.03010  1.0000
  I   I140      1.0  0.98336  0.46477  0.40898  1.0000
  I   I141      1.0  0.94986  0.49574  0.72667  1.0000
  I   I142      1.0  0.70768  0.00891  0.96375  1.0000
  I   I143      1.0  0.73909  0.96374  0.31744  1.0000
  I   I144      1.0  0.70605  0.00411  0.64333  1.0000
  I   I145      1.0  0.34436  0.05840  0.59533  1.0000
  I   I146      1.0  0.15647  0.99423  0.12913  1.0000
  I   I147      1.0  0.27599  0.03281  0.30298  1.0000
  I   I148      1.0  0.24139  0.25251  0.12273  1.0000
  I   I149      1.0  0.17944  0.28376  0.48653  1.0000
  I   I150      1.0  0.19038  0.27466  0.81693  1.0000
  I   I151      1.0  0.09170  0.61248  0.39162  1.0000
  I   I152      1.0  0.90131  0.76526  0.82552  1.0000
  I   I153      1.0  0.00480  0.71618  0.12066  1.0000
  I   I154      1.0  0.99549  0.85547  0.13794  1.0000
  I   I155      1.0  0.14418  0.93845  0.63733  1.0000
  I   I156      1.0  0.15575  0.79526  0.83021  1.0000
  I   I157      1.0  0.41785  0.13816  0.20761  1.0000
  I   I158      1.0  0.43347  0.14396  0.53866  1.0000
  I   I159      1.0  0.44454  0.11292  0.86028  1.0000
  I   I160      1.0  0.37769  0.36207  0.73129  1.0000
  I   I161      1.0  0.28029  0.42214  0.98870  1.0000
  I   I162      1.0  0.36344  0.40281  0.40992  1.0000
  I   I163      1.0  0.30060  0.77089  0.40531  1.0000
  I   I164      1.0  0.30006  0.66820  0.85777  1.0000
  I   I165      1.0  0.22905  0.64552  0.33449  1.0000
  I   I166      1.0  0.36032  0.86725  0.75296  1.0000
  I   I167      1.0  0.50272  0.82451  0.99700  1.0000
  I   I168      1.0  0.48193  0.73923  0.54242  1.0000
  I   I169      1.0  0.66509  0.15353  0.36354  1.0000
  I   I170      1.0  0.66988  0.13693  0.66901  1.0000
  I   I171      1.0  0.67812  0.13397  0.04472  1.0000
  I   I172      1.0  0.63466  0.34754  0.01740  1.0000
  I   I173      1.0  0.73126  0.37840  0.40845  1.0000
  I   I174      1.0  0.66927  0.34872  0.69340  1.0000
  I   I175      1.0  0.61279  0.59690  0.16585  1.0000
  I   I176      1.0  0.71116  0.51128  0.55263  1.0000
  I   I177      1.0  0.71132  0.51030  0.89046  1.0000
  I   I178      1.0  0.70552  0.75308  0.09882  1.0000
  I   I179      1.0  0.71371  0.74462  0.43840  1.0000
  I   I180      1.0  0.73060  0.75780  0.77132  1.0000
  I   I181      1.0  0.83530  0.13690  0.04610  1.0000
  I   I182      1.0  0.81774  0.15093  0.38222  1.0000
  I   I183      1.0  0.83674  0.13214  0.73478  1.0000
  I   I184      1.0  0.94062  0.29175  0.98328  1.0000
  I   I185      1.0  0.95705  0.19846  0.31209  1.0000
  I   I186      1.0  0.08874  0.14070  0.52893  1.0000
  I   I187      1.0  0.90323  0.49116  0.21841  1.0000
  I   I188      1.0  0.89998  0.45468  0.54483  1.0000
  I   I189      1.0  0.86425  0.51909  0.84658  1.0000
  I   I190      1.0  0.73332  0.87817  0.17056  1.0000
  I   I191      1.0  0.69532  0.94103  0.45031  1.0000
  I   I192      1.0  0.70365  0.94701  0.76779  1.0000
  I   I193      1.0  0.35790  0.10402  0.72255  1.0000
  I   I194      1.0  0.21957  0.01720  0.02895  1.0000
  I   I195      1.0  0.33899  0.07586  0.24722  1.0000
  I   I196      1.0  0.28270  0.30560  0.29654  1.0000
  I   I197      1.0  0.24470  0.29897  0.58152  1.0000
  I   I198      1.0  0.25500  0.29669  0.83003  1.0000
  I   I199      1.0  0.11961  0.55581  0.54910  1.0000
  I   I200      1.0  0.97633  0.75303  0.89116  1.0000
  I   I201      1.0  0.07226  0.73236  0.15906  1.0000
  I   I202      1.0  0.04631  0.88799  0.20461  1.0000
  I   I203      1.0  0.21339  0.85335  0.55769  1.0000
  I   I204      1.0  0.20451  0.83199  0.92642  1.0000
  I   I205      1.0  0.51200  0.11732  0.24198  1.0000
  I   I206      1.0  0.51609  0.07842  0.58065  1.0000
  I   I207      1.0  0.52721  0.09472  0.92802  1.0000
  I   I208      1.0  0.39418  0.43845  0.78994  1.0000
  I   I209      1.0  0.31346  0.46331  0.08415  1.0000
  I   I210      1.0  0.39346  0.47138  0.44089  1.0000
  I   I211      1.0  0.29008  0.84548  0.22420  1.0000
  I   I212      1.0  0.39105  0.61457  0.97774  1.0000
  I   I213      1.0  0.32103  0.60732  0.35404  1.0000
  I   I214      1.0  0.28292  0.95500  0.77137  1.0000
  I   I215      1.0  0.52657  0.86335  0.15105  1.0000
  I   I216      1.0  0.48452  0.82876  0.49197  1.0000
  I   I217      1.0  0.67986  0.23485  0.38836  1.0000
  I   I218      1.0  0.70432  0.19834  0.76005  1.0000
  I   I219      1.0  0.69671  0.21614  0.08214  1.0000
  I   I220      1.0  0.62613  0.43778  0.07214  1.0000
  I   I221      1.0  0.78205  0.33570  0.56587  1.0000
  I   I222      1.0  0.67780  0.42003  0.80105  1.0000
  I   I223      1.0  0.67072  0.62802  0.24743  1.0000
  I   I224      1.0  0.75716  0.55591  0.60040  1.0000
  I   I225      1.0  0.74683  0.55734  0.97751  1.0000
  I   I226      1.0  0.77151  0.79056  0.12537  1.0000
  I   I227      1.0  0.78489  0.76620  0.48987  1.0000
  I   I228      1.0  0.76529  0.79800  0.84895  1.0000
  I   I229      1.0  0.92937  0.08923  0.11140  1.0000
  I   I230      1.0  0.91055  0.09802  0.42932  1.0000
  I   I231      1.0  0.93568  0.07299  0.80794  1.0000
  I   I232      1.0  0.03742  0.24236  0.92337  1.0000
  I   I233      1.0  0.00441  0.24920  0.31218  1.0000
  I   I234      1.0  0.11950  0.06114  0.60789  1.0000
  I   I235      1.0  0.98963  0.49419  0.22902  1.0000
  I   I236      1.0  0.99310  0.45494  0.59141  1.0000
  I   I237      1.0  0.94695  0.46621  0.92478  1.0000
  I   I238      1.0  0.79088  0.92705  0.18224  1.0000
  I   I239      1.0  0.77448  0.95837  0.50043  1.0000
  I   I240      1.0  0.72311  0.02820  0.79909  1.0000
  I   I241      1.0  0.31767  0.04699  0.77757  1.0000
  I   I242      1.0  0.24816  0.98109  0.18194  1.0000
  I   I243      1.0  0.36768  0.00052  0.36014  1.0000
  I   I244      1.0  0.28683  0.22125  0.26511  1.0000
  I   I245      1.0  0.20952  0.23449  0.63916  1.0000
  I   I246      1.0  0.27508  0.20754  0.94280  1.0000
  I   I247      1.0  0.05777  0.53953  0.44755  1.0000
  I   I248      1.0  0.91554  0.71922  0.96958  1.0000
  I   I249      1.0  0.09218  0.64647  0.20307  1.0000
  I   I250      1.0  0.97776  0.87428  0.29321  1.0000
  I   I251      1.0  0.11353  0.90185  0.53721  1.0000
  I   I252      1.0  0.16441  0.77597  0.97394  1.0000
  I   I253      1.0  0.46832  0.09049  0.34308  1.0000
  I   I254      1.0  0.45549  0.05725  0.67597  1.0000
  I   I255      1.0  0.46860  0.06260  0.99850  1.0000
  I   I256      1.0  0.37408  0.37272  0.89486  1.0000
  I   I257      1.0  0.25999  0.41587  0.15995  1.0000
  I   I258      1.0  0.44937  0.37585  0.47415  1.0000
  I   I259      1.0  0.36620  0.80531  0.33670  1.0000
  I   I260      1.0  0.46183  0.63552  0.95346  1.0000
  I   I261      1.0  0.28275  0.66545  0.47413  1.0000
  I   I262      1.0  0.27613  0.86706  0.79391  1.0000
  I   I263      1.0  0.45561  0.84575  0.14599  1.0000
  I   I264      1.0  0.52115  0.77573  0.65339  1.0000
  I   I265      1.0  0.72380  0.15824  0.47756  1.0000
  I   I266      1.0  0.71108  0.11840  0.81501  1.0000
  I   I267      1.0  0.73982  0.12454  0.16099  1.0000
  I   I268      1.0  0.65730  0.35772  0.17082  1.0000
  I   I269      1.0  0.72500  0.29964  0.49806  1.0000
  I   I270      1.0  0.69815  0.33320  0.87739  1.0000
  I   I271      1.0  0.62144  0.59525  0.35536  1.0000
  I   I272      1.0  0.77862  0.45323  0.65447  1.0000
  I   I273      1.0  0.69984  0.51255  0.05676  1.0000
  I   I274      1.0  0.77904  0.71319  0.22828  1.0000
  I   I275      1.0  0.75269  0.70733  0.59366  1.0000
  I   I276      1.0  0.75816  0.72367  0.92308  1.0000
  I   I277      1.0  0.85808  0.08841  0.20710  1.0000
  I   I278      1.0  0.83385  0.09596  0.51627  1.0000
  I   I279      1.0  0.84904  0.08540  0.87602  1.0000
  I   I280      1.0  0.00302  0.20922  0.06579  1.0000
  I   I281      1.0  0.05285  0.15525  0.36342  1.0000
  I   I282      1.0  0.08801  0.11219  0.75480  1.0000
  I   I283      1.0  0.98017  0.41278  0.26665  1.0000
  I   I284      1.0  0.92864  0.42203  0.71366  1.0000
  I   I285      1.0  0.86551  0.50620  0.01700  1.0000
  I   I286      1.0  0.79214  0.86498  0.31086  1.0000
  I   I287      1.0  0.74584  0.90544  0.59270  1.0000
  I   I288      1.0  0.77266  0.93111  0.88934  1.0000
  I   I289      1.0  0.25428  0.10300  0.63816  1.0000
  I   I290      1.0  0.07575  0.04524  0.04448  1.0000
  I   I291      1.0  0.19497  0.09033  0.37583  1.0000
  I   I292      1.0  0.14625  0.32124  0.17126  1.0000
  I   I293      1.0  0.07673  0.37409  0.53670  1.0000
  I   I294      1.0  0.09257  0.33203  0.84005  1.0000
  I   I295      1.0  0.01197  0.63633  0.42009  1.0000
  I   I296      1.0  0.90989  0.82790  0.70401  1.0000
  I   I297      1.0  0.91255  0.72588  0.13642  1.0000
  I   I298      1.0  0.94346  0.88531  0.00182  1.0000
  I   I299      1.0  0.87171  0.00481  0.35456  1.0000
  I   I300      1.0  0.08988  0.81248  0.73747  1.0000
  I   I301      1.0  0.34588  0.22671  0.11315  1.0000
  I   I302      1.0  0.36650  0.25015  0.52131  1.0000
  I   I303      1.0  0.36947  0.20740  0.84649  1.0000
  I   I304      1.0  0.29951  0.39933  0.59315  1.0000
  I   I305      1.0  0.20250  0.46200  0.92632  1.0000
  I   I306      1.0  0.14066  0.45192  0.19433  1.0000
  I   I307      1.0  0.22083  0.82138  0.34727  1.0000
  I   I308      1.0  0.29814  0.74786  0.79305  1.0000
  I   I309      1.0  0.33398  0.54461  0.19411  1.0000
  I   I310      1.0  0.32422  0.83690  0.64534  1.0000
  I   I311      1.0  0.46181  0.90550  0.79930  1.0000
  I   I312      1.0  0.41822  0.90558  0.27174  1.0000
  I   I313      1.0  0.57730  0.16672  0.32660  1.0000
  I   I314      1.0  0.57623  0.16964  0.68262  1.0000
  I   I315      1.0  0.58667  0.14673  0.01115  1.0000
  I   I316      1.0  0.57066  0.32591  0.95256  1.0000
  I   I317      1.0  0.48211  0.43391  0.21200  1.0000
  I   I318      1.0  0.58859  0.37543  0.59476  1.0000
  I   I319      1.0  0.53627  0.65797  0.09540  1.0000
  I   I320      1.0  0.53448  0.58809  0.37365  1.0000
  I   I321      1.0  0.62153  0.54977  0.83385  1.0000
  I   I322      1.0  0.61127  0.78625  0.08446  1.0000
  I   I323      1.0  0.62073  0.79452  0.41159  1.0000
  I   I324      1.0  0.64450  0.77242  0.74192  1.0000
  I   I325      1.0  0.79051  0.24709  0.01907  1.0000
  I   I326      1.0  0.76821  0.24696  0.35091  1.0000
  I   I327      1.0  0.79383  0.21650  0.72457  1.0000
  I   I328      1.0  0.92274  0.38516  0.89307  1.0000
  I   I329      1.0  0.86904  0.31442  0.27792  1.0000
  I   I330      1.0  0.02141  0.13669  0.64336  1.0000
  I   I331      1.0  0.83867  0.65984  0.08595  1.0000
  I   I332      1.0  0.84881  0.53599  0.45860  1.0000
  I   I333      1.0  0.83467  0.61338  0.77260  1.0000
  I   I334      1.0  0.62799  0.96649  0.07685  1.0000
  I   I335      1.0  0.60654  0.00630  0.36752  1.0000
  I   I336      1.0  0.60794  0.98728  0.74543  1.0000
  I   I337      1.0  0.23691  0.15799  0.49215  1.0000
  I   I338      1.0  0.13864  0.06892  0.93684  1.0000
  I   I339      1.0  0.15899  0.14780  0.23859  1.0000
  I   I340      1.0  0.14702  0.37629  0.04860  1.0000
  I   I341      1.0  0.12027  0.38435  0.38539  1.0000
  I   I342      1.0  0.09778  0.40504  0.74225  1.0000
  I   I343      1.0  0.98544  0.73973  0.41388  1.0000
  I   I344      1.0  0.99395  0.81636  0.77711  1.0000
  I   I345      1.0  0.89495  0.81566  0.20119  1.0000
  I   I346      1.0  0.00021  0.92766  0.94259  1.0000
  I   I347      1.0  0.95027  0.94549  0.44227  1.0000
  I   I348      1.0  0.07858  0.89628  0.69824  1.0000
  I   I349      1.0  0.41796  0.23715  0.06764  1.0000
  I   I350      1.0  0.41563  0.27440  0.40640  1.0000
  I   I351      1.0  0.41894  0.23958  0.74275  1.0000
  I   I352      1.0  0.32354  0.45914  0.53350  1.0000
  I   I353      1.0  0.21504  0.50957  0.80897  1.0000
  I   I354      1.0  0.14363  0.53496  0.23113  1.0000
  I   I355      1.0  0.23579  0.76757  0.20695  1.0000
  I   I356      1.0  0.29152  0.72195  0.98858  1.0000
  I   I357      1.0  0.27721  0.55139  0.32369  1.0000
  I   I358      1.0  0.38834  0.83203  0.52700  1.0000
  I   I359      1.0  0.55047  0.83472  0.85333  1.0000
  I   I360      1.0  0.49479  0.91961  0.30215  1.0000
  I   I361      1.0  0.55689  0.24655  0.22289  1.0000
  I   I362      1.0  0.56255  0.24399  0.58562  1.0000
  I   I363      1.0  0.55807  0.23157  0.93197  1.0000
  I   I364      1.0  0.52620  0.40966  0.88107  1.0000
  I   I365      1.0  0.49851  0.47726  0.34151  1.0000
  I   I366      1.0  0.58030  0.46510  0.58804  1.0000
  I   I367      1.0  0.58921  0.68589  0.97718  1.0000
  I   I368      1.0  0.49278  0.68620  0.40220  1.0000
  I   I369      1.0  0.66231  0.59080  0.68831  1.0000
  I   I370      1.0  0.60039  0.86782  0.02774  1.0000
  I   I371      1.0  0.63277  0.86228  0.32104  1.0000
  I   I372      1.0  0.62067  0.85631  0.67251  1.0000
  I   I373      1.0  0.87510  0.22138  0.95959  1.0000
  I   I374      1.0  0.83305  0.25172  0.25413  1.0000
  I   I375      1.0  0.86012  0.23476  0.62792  1.0000
  I   I376      1.0  0.00338  0.33318  0.80698  1.0000
  I   I377      1.0  0.93895  0.33934  0.37168  1.0000
  I   I378      1.0  0.96681  0.22573  0.62555  1.0000
  I   I379      1.0  0.93530  0.61038  0.03300  1.0000
  I   I380      1.0  0.91843  0.53908  0.36824  1.0000
  I   I381      1.0  0.90833  0.59133  0.68140  1.0000
  I   I382      1.0  0.60540  0.05320  0.02090  1.0000
  I   I383      1.0  0.65972  0.04314  0.30024  1.0000
  I   I384      1.0  0.60704  0.06620  0.66268  1.0000
