data_image0
_chemical_formula_structural       Ti96I384
_chemical_formula_sum              "Ti96 I384"
_cell_length_a       36.1172
_cell_length_b       35.6616
_cell_length_c       22.1355
_cell_angle_alpha    88.7757
_cell_angle_beta     88.7757
_cell_angle_gamma    62.1586

_space_group_name_H-M_alt    "P 1"
_space_group_IT_number       1

loop_
  _space_group_symop_operation_xyz
  'x, y, z'

loop_
  _atom_site_type_symbol
  _atom_site_label
  _atom_site_symmetry_multiplicity
  _atom_site_fract_x
  _atom_site_fract_y
  _atom_site_fract_z
  _atom_site_occupancy
  Ti  Ti1       1.0  0.15832  0.09150  0.24108  1.0000
  Ti  Ti2       1.0  0.15748  0.08980  0.57973  1.0000
  Ti  Ti3       1.0  0.15430  0.09140  0.90077  1.0000
  Ti  Ti4       1.0  0.16012  0.34155  0.26167  1.0000
  Ti  Ti5       1.0  0.16335  0.33640  0.59537  1.0000
  Ti  Ti6       1.0  0.16287  0.34021  0.94410  1.0000
  Ti  Ti7       1.0  0.14809  0.60898  0.23093  1.0000
  Ti  Ti8       1.0  0.14473  0.59211  0.55087  1.0000
  Ti  Ti9       1.0  0.14711  0.59727  0.89104  1.0000
  Ti  Ti10      1.0  0.15847  0.85140  0.22852  1.0000
  Ti  Ti11      1.0  0.15400  0.84361  0.57696  1.0000
  Ti  Ti12      1.0  0.15288  0.84386  0.90326  1.0000
  Ti  Ti13      1.0  0.39781  0.09992  0.26335  1.0000
  Ti  Ti14      1.0  0.40141  0.09564  0.60124  1.0000
  Ti  Ti15      1.0  0.39812  0.10349  0.92932  1.0000
  Ti  Ti16      1.0  0.42759  0.32002  0.25618  1.0000
  Ti  Ti17      1.0  0.41785  0.30680  0.58550  1.0000
  Ti  Ti18      1.0  0.42281  0.30832  0.91606  1.0000
  Ti  Ti19      1.0  0.41407  0.58391  0.24805  1.0000
  Ti  Ti20      1.0  0.41419  0.59096  0.56602  1.0000
  Ti  Ti21      1.0  0.41162  0.59485  0.91958  1.0000
  Ti  Ti22      1.0  0.40341  0.84762  0.25819  1.0000
  Ti  Ti23      1.0  0.40962  0.84442  0.58545  1.0000
  Ti  Ti24      1.0  0.40753  0.85094  0.91181  1.0000
  Ti  Ti25      1.0  0.66472  0.08306  0.25026  1.0000
  Ti  Ti26      1.0  0.66789  0.07879  0.58374  1.0000
  Ti  Ti27      1.0  0.67365  0.07460  0.91902  1.0000
  Ti  Ti28      1.0  0.65686  0.34098  0.26209  1.0000
  Ti  Ti29      1.0  0.65014  0.33903  0.60060  1.0000
  Ti  Ti30      1.0  0.64836  0.34483  0.92391  1.0000
  Ti  Ti31      1.0  0.66331  0.59818  0.26486  1.0000
  Ti  Ti32      1.0  0.66387  0.61200  0.60301  1.0000
  Ti  Ti33      1.0  0.66753  0.60640  0.93881  1.0000
  Ti  Ti34      1.0  0.67561  0.83181  0.22988  1.0000
  Ti  Ti35      1.0  0.67604  0.83401  0.56964  1.0000
  Ti  Ti36      1.0  0.66780  0.83838  0.89397  1.0000
  Ti  Ti37      1.0  0.90981  0.09296  0.26666  1.0000
  Ti  Ti38      1.0  0.90582  0.09087  0.60400  1.0000
  Ti  Ti39      1.0  0.90492  0.09431  0.93375  1.0000
  Ti  Ti40      1.0  0.90434  0.34247  0.25203  1.0000
  Ti  Ti41      1.0  0.90184  0.33690  0.57954  1.0000
  Ti  Ti42      1.0  0.90184  0.34748  0.92221  1.0000
  Ti  Ti43      1.0  0.92079  0.58288  0.24775  1.0000
  Ti  Ti44      1.0  0.91593  0.58702  0.56655  1.0000
  Ti  Ti45      1.0  0.91382  0.58977  0.91590  1.0000
  Ti  Ti46      1.0  0.90699  0.84785  0.23469  1.0000
  Ti  Ti47      1.0  0.90935  0.84687  0.57685  1.0000
  Ti  Ti48      1.0  0.90765  0.84636  0.90661  1.0000
  Ti  Ti49      1.0  0.09177  0.16517  0.06735  1.0000
  Ti  Ti50      1.0  0.09991  0.15398  0.40069  1.0000
  Ti  Ti51      1.0  0.08826  0.15691  0.74360  1.0000
  Ti  Ti52      1.0  0.07916  0.41366  0.10254  1.0000
  Ti  Ti53      1.0  0.08663  0.40918  0.42854  1.0000
  Ti  Ti54      1.0  0.08939  0.40107  0.76856  1.0000
  Ti  Ti55      1.0  0.08173  0.66216  0.05905  1.0000
  Ti  Ti56      1.0  0.07750  0.66717  0.39811  1.0000
  Ti  Ti57      1.0  0.08912  0.66079  0.72374  1.0000
  Ti  Ti58      1.0  0.09838  0.91364  0.06911  1.0000
  Ti  Ti59      1.0  0.09857  0.91815  0.40910  1.0000
  Ti  Ti60      1.0  0.08908  0.91941  0.73607  1.0000
  Ti  Ti61      1.0  0.32525  0.17138  0.10540  1.0000
  Ti  Ti62      1.0  0.32570  0.16253  0.41861  1.0000
  Ti  Ti63      1.0  0.32478  0.16631  0.77085  1.0000
  Ti  Ti64      1.0  0.36688  0.38722  0.08281  1.0000
  Ti  Ti65      1.0  0.34824  0.39092  0.41918  1.0000
  Ti  Ti66      1.0  0.35938  0.38952  0.75486  1.0000
  Ti  Ti67      1.0  0.34201  0.66037  0.08694  1.0000
  Ti  Ti68      1.0  0.35061  0.66348  0.42649  1.0000
  Ti  Ti69      1.0  0.34610  0.66895  0.75478  1.0000
  Ti  Ti70      1.0  0.33769  0.90965  0.08401  1.0000
  Ti  Ti71      1.0  0.33623  0.91008  0.42572  1.0000
  Ti  Ti72      1.0  0.33216  0.91200  0.74229  1.0000
  Ti  Ti73      1.0  0.61273  0.14822  0.07066  1.0000
  Ti  Ti74      1.0  0.60017  0.14792  0.40815  1.0000
  Ti  Ti75      1.0  0.60569  0.14458  0.75595  1.0000
  Ti  Ti76      1.0  0.58242  0.40719  0.09218  1.0000
  Ti  Ti77      1.0  0.58579  0.40156  0.43871  1.0000
  Ti  Ti78      1.0  0.57613  0.41912  0.76567  1.0000
  Ti  Ti79      1.0  0.59260  0.66184  0.09576  1.0000
  Ti  Ti80      1.0  0.59430  0.65400  0.43379  1.0000
  Ti  Ti81      1.0  0.59180  0.67256  0.77757  1.0000
  Ti  Ti82      1.0  0.60137  0.90764  0.07380  1.0000
  Ti  Ti83      1.0  0.60162  0.90255  0.39861  1.0000
  Ti  Ti84      1.0  0.59197  0.91412  0.74297  1.0000
  Ti  Ti85      1.0  0.83285  0.16118  0.09219  1.0000
  Ti  Ti86      1.0  0.83184  0.15660  0.43378  1.0000
  Ti  Ti87      1.0  0.83980  0.16230  0.75866  1.0000
  Ti  Ti88      1.0  0.83582  0.41881  0.09432  1.0000
  Ti  Ti89      1.0  0.82577  0.41844  0.41518  1.0000
  Ti  Ti90      1.0  0.84214  0.40200  0.75955  1.0000
  Ti  Ti91      1.0  0.84301  0.65528  0.08827  1.0000
  Ti  Ti92      1.0  0.84021  0.66087  0.40343  1.0000
  Ti  Ti93      1.0  0.84974  0.66273  0.73526  1.0000
  Ti  Ti94      1.0  0.83077  0.91825  0.06258  1.0000
  Ti  Ti95      1.0  0.83929  0.90793  0.41357  1.0000
  Ti  Ti96      1.0  0.83565  0.90473  0.73492  1.0000
  I   I1        1.0  0.07683  0.12587  0.29942  1.0000
  I   I2        1.0  0.07926  0.11606  0.64908  1.0000
  I   I3        1.0  0.07267  0.13967  0.96370  1.0000
  I   I4        1.0  0.08111  0.36661  0.32286  1.0000
  I   I5        1.0  0.08543  0.36216  0.66003  1.0000
  I   I6        1.0  0.07926  0.36570  0.00349  1.0000
  I   I7        1.0  0.07191  0.63156  0.29227  1.0000
  I   I8        1.0  0.06418  0.63799  0.61625  1.0000
  I   I9        1.0  0.06491  0.64104  0.94576  1.0000
  I   I10       1.0  0.07276  0.89087  0.31076  1.0000
  I   I11       1.0  0.07651  0.88684  0.63456  1.0000
  I   I12       1.0  0.07734  0.88482  0.96370  1.0000
  I   I13       1.0  0.31980  0.12205  0.32054  1.0000
  I   I14       1.0  0.31877  0.11956  0.66630  1.0000
  I   I15       1.0  0.31432  0.12826  0.99818  1.0000
  I   I16       1.0  0.33939  0.36351  0.31546  1.0000
  I   I17       1.0  0.33745  0.35222  0.66211  1.0000
  I   I18       1.0  0.34708  0.35322  0.98949  1.0000
  I   I19       1.0  0.33256  0.63600  0.32192  1.0000
  I   I20       1.0  0.33363  0.63315  0.64469  1.0000
  I   I21       1.0  0.32775  0.62593  0.98430  1.0000
  I   I22       1.0  0.32339  0.87108  0.32724  1.0000
  I   I23       1.0  0.33315  0.86133  0.65344  1.0000
  I   I24       1.0  0.32638  0.87744  0.97992  1.0000
  I   I25       1.0  0.58419  0.12684  0.30045  1.0000
  I   I26       1.0  0.59201  0.10976  0.64844  1.0000
  I   I27       1.0  0.59108  0.12162  0.97021  1.0000
  I   I28       1.0  0.58159  0.36750  0.33116  1.0000
  I   I29       1.0  0.56987  0.37178  0.65944  1.0000
  I   I30       1.0  0.57489  0.36606  0.98932  1.0000
  I   I31       1.0  0.58537  0.62241  0.32653  1.0000
  I   I32       1.0  0.58513  0.62865  0.67343  1.0000
  I   I33       1.0  0.58222  0.63539  0.98223  1.0000
  I   I34       1.0  0.59080  0.87183  0.29624  1.0000
  I   I35       1.0  0.59202  0.87001  0.64096  1.0000
  I   I36       1.0  0.59364  0.86500  0.97876  1.0000
  I   I37       1.0  0.83036  0.11600  0.32557  1.0000
  I   I38       1.0  0.82403  0.12266  0.65962  1.0000
  I   I39       1.0  0.82652  0.11364  0.99960  1.0000
  I   I40       1.0  0.81803  0.38261  0.30985  1.0000
  I   I41       1.0  0.82354  0.37824  0.65135  1.0000
  I   I42       1.0  0.81976  0.39175  0.98785  1.0000
  I   I43       1.0  0.83293  0.62322  0.30639  1.0000
  I   I44       1.0  0.83641  0.63151  0.63878  1.0000
  I   I45       1.0  0.82772  0.62714  0.98326  1.0000
  I   I46       1.0  0.82545  0.87974  0.29479  1.0000
  I   I47       1.0  0.82641  0.86779  0.63582  1.0000
  I   I48       1.0  0.82374  0.87171  0.96661  1.0000
  I   I49       1.0  0.12753  0.16872  0.18143  1.0000
  I   I50       1.0  0.12794  0.17318  0.51002  1.0000
  I   I51       1.0  0.12755  0.17285  0.83628  1.0000
  I   I52       1.0  0.11861  0.43041  0.20837  1.0000
  I   I53       1.0  0.11605  0.42945  0.53397  1.0000
  I   I54       1.0  0.11606  0.42123  0.87387  1.0000
  I   I55       1.0  0.10766  0.68725  0.16728  1.0000
  I   I56       1.0  0.11598  0.67528  0.50169  1.0000
  I   I57       1.0  0.12678  0.67516  0.82507  1.0000
  I   I58       1.0  0.12724  0.93101  0.17134  1.0000
  I   I59       1.0  0.13150  0.92562  0.51899  1.0000
  I   I60       1.0  0.12910  0.92244  0.84110  1.0000
  I   I61       1.0  0.35319  0.18451  0.21110  1.0000
  I   I62       1.0  0.36250  0.17258  0.52985  1.0000
  I   I63       1.0  0.34832  0.18913  0.87224  1.0000
  I   I64       1.0  0.40183  0.39563  0.19318  1.0000
  I   I65       1.0  0.38757  0.39258  0.52801  1.0000
  I   I66       1.0  0.40533  0.39456  0.84961  1.0000
  I   I67       1.0  0.39559  0.66335  0.19317  1.0000
  I   I68       1.0  0.39415  0.67101  0.52166  1.0000
  I   I69       1.0  0.38393  0.67757  0.84711  1.0000
  I   I70       1.0  0.35885  0.92816  0.19516  1.0000
  I   I71       1.0  0.36555  0.93448  0.51886  1.0000
  I   I72       1.0  0.35452  0.93369  0.85030  1.0000
  I   I73       1.0  0.64496  0.15984  0.17664  1.0000
  I   I74       1.0  0.62907  0.16033  0.52346  1.0000
  I   I75       1.0  0.64386  0.15969  0.85280  1.0000
  I   I76       1.0  0.60456  0.42581  0.20242  1.0000
  I   I77       1.0  0.62206  0.42165  0.53778  1.0000
  I   I78       1.0  0.60127  0.43466  0.87100  1.0000
  I   I79       1.0  0.60509  0.68173  0.21139  1.0000
  I   I80       1.0  0.60996  0.68896  0.54296  1.0000
  I   I81       1.0  0.61976  0.69303  0.87989  1.0000
  I   I82       1.0  0.63534  0.91706  0.17602  1.0000
  I   I83       1.0  0.63718  0.91885  0.50319  1.0000
  I   I84       1.0  0.63949  0.92076  0.83096  1.0000
  I   I85       1.0  0.85666  0.18123  0.20392  1.0000
  I   I86       1.0  0.86882  0.17621  0.52934  1.0000
  I   I87       1.0  0.86775  0.17584  0.87173  1.0000
  I   I88       1.0  0.87233  0.42872  0.19812  1.0000
  I   I89       1.0  0.85453  0.42535  0.53000  1.0000
  I   I90       1.0  0.86794  0.42938  0.85521  1.0000
  I   I91       1.0  0.87969  0.66670  0.18591  1.0000
  I   I92       1.0  0.88460  0.66921  0.50724  1.0000
  I   I93       1.0  0.88691  0.66898  0.84980  1.0000
  I   I94       1.0  0.86239  0.93586  0.16696  1.0000
  I   I95       1.0  0.87045  0.92852  0.51357  1.0000
  I   I96       1.0  0.86709  0.92539  0.83826  1.0000
  I   I97       1.0  0.17714  0.12406  0.00967  1.0000
  I   I98       1.0  0.18070  0.10408  0.35000  1.0000
  I   I99       1.0  0.17229  0.11551  0.68474  1.0000
  I   I100      1.0  0.16816  0.38162  0.04129  1.0000
  I   I101      1.0  0.17103  0.37099  0.37313  1.0000
  I   I102      1.0  0.17041  0.37467  0.70604  1.0000
  I   I103      1.0  0.16522  0.63274  0.98707  1.0000
  I   I104      1.0  0.16138  0.64492  0.33423  1.0000
  I   I105      1.0  0.16902  0.61088  0.67118  1.0000
  I   I106      1.0  0.17427  0.88352  0.00116  1.0000
  I   I107      1.0  0.17388  0.87154  0.34022  1.0000
  I   I108      1.0  0.17907  0.87454  0.67464  1.0000
  I   I109      1.0  0.40069  0.14705  0.03652  1.0000
  I   I110      1.0  0.41461  0.13938  0.36417  1.0000
  I   I111      1.0  0.40638  0.12774  0.70769  1.0000
  I   I112      1.0  0.44328  0.34106  0.01445  1.0000
  I   I113      1.0  0.43628  0.36358  0.35296  1.0000
  I   I114      1.0  0.43649  0.33890  0.68137  1.0000
  I   I115      1.0  0.41718  0.63914  0.01368  1.0000
  I   I116      1.0  0.42833  0.61412  0.36435  1.0000
  I   I117      1.0  0.43266  0.61860  0.68277  1.0000
  I   I118      1.0  0.42683  0.87815  0.01055  1.0000
  I   I119      1.0  0.41202  0.88797  0.35595  1.0000
  I   I120      1.0  0.42054  0.88349  0.68335  1.0000
  I   I121      1.0  0.69324  0.10709  0.01528  1.0000
  I   I122      1.0  0.68636  0.11358  0.34707  1.0000
  I   I123      1.0  0.68426  0.10948  0.69303  1.0000
  I   I124      1.0  0.66436  0.38014  0.03070  1.0000
  I   I125      1.0  0.67046  0.37813  0.37412  1.0000
  I   I126      1.0  0.65296  0.39201  0.69824  1.0000
  I   I127      1.0  0.66809  0.64996  0.03792  1.0000
  I   I128      1.0  0.67777  0.62756  0.36702  1.0000
  I   I129      1.0  0.67048  0.64815  0.70553  1.0000
  I   I130      1.0  0.68269  0.87074  0.00387  1.0000
  I   I131      1.0  0.68960  0.86219  0.33684  1.0000
  I   I132      1.0  0.68156  0.86776  0.67768  1.0000
  I   I133      1.0  0.91494  0.12522  0.04120  1.0000
  I   I134      1.0  0.91276  0.12077  0.37804  1.0000
  I   I135      1.0  0.92214  0.11770  0.71389  1.0000
  I   I136      1.0  0.92165  0.37686  0.03062  1.0000
  I   I137      1.0  0.90960  0.37339  0.36192  1.0000
  I   I138      1.0  0.92112  0.36355  0.69221  1.0000
  I   I139      1.0  0.92753  0.62013  0.02198  1.0000
  I   I140      1.0  0.92616  0.61796  0.34500  1.0000
  I   I141      1.0  0.93456  0.61179  0.68526  1.0000
  I   I142      1.0  0.90891  0.89668  0.00210  1.0000
  I   I143      1.0  0.91480  0.87813  0.34472  1.0000
  I   I144      1.0  0.92779  0.87799  0.67702  1.0000
  I   I145      1.0  0.13112  0.07551  0.12639  1.0000
  I   I146      1.0  0.12341  0.07876  0.47457  1.0000
  I   I147      1.0  0.10607  0.08193  0.80910  1.0000
  I   I148      1.0  0.12924  0.33015  0.15163  1.0000
  I   I149      1.0  0.12311  0.32772  0.49093  1.0000
  I   I150      1.0  0.12763  0.32388  0.83640  1.0000
  I   I151      1.0  0.11878  0.58658  0.11782  1.0000
  I   I152      1.0  0.12305  0.57904  0.43864  1.0000
  I   I153      1.0  0.10643  0.58362  0.79064  1.0000
  I   I154      1.0  0.13584  0.83242  0.12502  1.0000
  I   I155      1.0  0.12592  0.82882  0.47195  1.0000
  I   I156      1.0  0.11257  0.84184  0.80290  1.0000
  I   I157      1.0  0.36204  0.08717  0.17048  1.0000
  I   I158      1.0  0.35754  0.08564  0.49800  1.0000
  I   I159      1.0  0.36249  0.08482  0.83381  1.0000
  I   I160      1.0  0.39119  0.30431  0.14495  1.0000
  I   I161      1.0  0.37135  0.31121  0.47563  1.0000
  I   I162      1.0  0.37493  0.31240  0.82347  1.0000
  I   I163      1.0  0.38304  0.57667  0.14033  1.0000
  I   I164      1.0  0.37718  0.57272  0.47527  1.0000
  I   I165      1.0  0.37844  0.58508  0.81370  1.0000
  I   I166      1.0  0.37401  0.82899  0.14833  1.0000
  I   I167      1.0  0.38220  0.82291  0.47923  1.0000
  I   I168      1.0  0.37377  0.83208  0.80648  1.0000
  I   I169      1.0  0.63892  0.06608  0.13423  1.0000
  I   I170      1.0  0.63111  0.06642  0.47139  1.0000
  I   I171      1.0  0.63080  0.06569  0.81811  1.0000
  I   I172      1.0  0.62421  0.32161  0.16271  1.0000
  I   I173      1.0  0.62388  0.31891  0.49820  1.0000
  I   I174      1.0  0.60692  0.33786  0.82787  1.0000
  I   I175      1.0  0.64403  0.57494  0.14613  1.0000
  I   I176      1.0  0.62919  0.58669  0.50910  1.0000
  I   I177      1.0  0.64116  0.58759  0.83293  1.0000
  I   I178      1.0  0.62679  0.82491  0.14546  1.0000
  I   I179      1.0  0.63526  0.82561  0.46580  1.0000
  I   I180      1.0  0.62008  0.83118  0.80724  1.0000
  I   I181      1.0  0.87507  0.08210  0.16241  1.0000
  I   I182      1.0  0.86912  0.07777  0.50444  1.0000
  I   I183      1.0  0.87568  0.08107  0.82334  1.0000
  I   I184      1.0  0.86569  0.33395  0.14644  1.0000
  I   I185      1.0  0.85737  0.33358  0.48447  1.0000
  I   I186      1.0  0.86790  0.32639  0.82441  1.0000
  I   I187      1.0  0.87710  0.57083  0.15093  1.0000
  I   I188      1.0  0.87096  0.58250  0.47211  1.0000
  I   I189      1.0  0.87533  0.58270  0.80919  1.0000
  I   I190      1.0  0.87863  0.83239  0.13081  1.0000
  I   I191      1.0  0.88083  0.82435  0.46496  1.0000
  I   I192      1.0  0.87698  0.82918  0.80181  1.0000
  I   I193      1.0  0.23522  0.05880  0.19375  1.0000
  I   I194      1.0  0.23152  0.07202  0.54054  1.0000
  I   I195      1.0  0.22771  0.06562  0.85377  1.0000
  I   I196      1.0  0.23433  0.32278  0.21641  1.0000
  I   I197      1.0  0.23706  0.31633  0.55188  1.0000
  I   I198      1.0  0.23149  0.33707  0.89190  1.0000
  I   I199      1.0  0.22397  0.59308  0.18792  1.0000
  I   I200      1.0  0.22020  0.57815  0.52375  1.0000
  I   I201      1.0  0.21975  0.56939  0.84604  1.0000
  I   I202      1.0  0.23325  0.82591  0.18408  1.0000
  I   I203      1.0  0.22619  0.82749  0.51748  1.0000
  I   I204      1.0  0.22957  0.82551  0.86779  1.0000
  I   I205      1.0  0.46995  0.08277  0.21598  1.0000
  I   I206      1.0  0.47611  0.08462  0.56268  1.0000
  I   I207      1.0  0.46425  0.10983  0.88908  1.0000
  I   I208      1.0  0.50676  0.28763  0.22631  1.0000
  I   I209      1.0  0.49019  0.28631  0.53269  1.0000
  I   I210      1.0  0.49412  0.28575  0.86142  1.0000
  I   I211      1.0  0.49335  0.55885  0.22067  1.0000
  I   I212      1.0  0.49243  0.55876  0.53702  1.0000
  I   I213      1.0  0.48463  0.57526  0.86154  1.0000
  I   I214      1.0  0.47565  0.83005  0.21621  1.0000
  I   I215      1.0  0.47831  0.83560  0.53554  1.0000
  I   I216      1.0  0.46586  0.85054  0.84194  1.0000
  I   I217      1.0  0.73936  0.05620  0.19891  1.0000
  I   I218      1.0  0.74338  0.06479  0.55114  1.0000
  I   I219      1.0  0.74533  0.04932  0.86029  1.0000
  I   I220      1.0  0.72639  0.34189  0.23345  1.0000
  I   I221      1.0  0.72587  0.31519  0.56443  1.0000
  I   I222      1.0  0.71594  0.34483  0.88006  1.0000
  I   I223      1.0  0.72896  0.59399  0.20878  1.0000
  I   I224      1.0  0.73233  0.60512  0.55404  1.0000
  I   I225      1.0  0.73814  0.60280  0.89359  1.0000
  I   I226      1.0  0.74082  0.81024  0.16375  1.0000
  I   I227      1.0  0.74687  0.82093  0.51927  1.0000
  I   I228      1.0  0.74070  0.81559  0.85224  1.0000
  I   I229      1.0  0.98022  0.08663  0.22952  1.0000
  I   I230      1.0  0.98206  0.07229  0.56565  1.0000
  I   I231      1.0  0.97656  0.08658  0.88812  1.0000
  I   I232      1.0  0.98516  0.31429  0.21489  1.0000
  I   I233      1.0  0.97399  0.31833  0.54450  1.0000
  I   I234      1.0  0.97333  0.32322  0.87125  1.0000
  I   I235      1.0  0.99050  0.57058  0.19901  1.0000
  I   I236      1.0  0.98941  0.57076  0.52299  1.0000
  I   I237      1.0  0.98945  0.56826  0.87255  1.0000
  I   I238      1.0  0.98231  0.82947  0.20191  1.0000
  I   I239      1.0  0.97824  0.82153  0.51917  1.0000
  I   I240      1.0  0.98148  0.83301  0.86826  1.0000
  I   I241      1.0  0.16548  0.01651  0.26967  1.0000
  I   I242      1.0  0.17164  0.01254  0.61413  1.0000
  I   I243      1.0  0.16509  0.01784  0.93515  1.0000
  I   I244      1.0  0.17524  0.26351  0.29820  1.0000
  I   I245      1.0  0.17385  0.26103  0.63458  1.0000
  I   I246      1.0  0.17789  0.26631  0.98054  1.0000
  I   I247      1.0  0.17589  0.52665  0.24881  1.0000
  I   I248      1.0  0.15535  0.51860  0.59616  1.0000
  I   I249      1.0  0.15339  0.52555  0.93870  1.0000
  I   I250      1.0  0.16603  0.77893  0.28004  1.0000
  I   I251      1.0  0.17143  0.76961  0.62622  1.0000
  I   I252      1.0  0.16225  0.76993  0.94199  1.0000
  I   I253      1.0  0.42795  0.02652  0.32328  1.0000
  I   I254      1.0  0.42477  0.01853  0.63820  1.0000
  I   I255      1.0  0.43142  0.02410  0.96042  1.0000
  I   I256      1.0  0.43971  0.24956  0.30855  1.0000
  I   I257      1.0  0.43143  0.23678  0.63416  1.0000
  I   I258      1.0  0.43994  0.23464  0.95127  1.0000
  I   I259      1.0  0.42024  0.51080  0.28855  1.0000
  I   I260      1.0  0.41971  0.52159  0.61887  1.0000
  I   I261      1.0  0.43398  0.52127  0.97476  1.0000
  I   I262      1.0  0.42575  0.77185  0.30195  1.0000
  I   I263      1.0  0.44665  0.76411  0.61373  1.0000
  I   I264      1.0  0.43299  0.77169  0.93278  1.0000
  I   I265      1.0  0.67944  0.00722  0.28469  1.0000
  I   I266      1.0  0.68472  0.00226  0.61773  1.0000
  I   I267      1.0  0.67771  0.00296  0.96118  1.0000
  I   I268      1.0  0.67598  0.26918  0.32603  1.0000
  I   I269      1.0  0.67245  0.26588  0.65562  1.0000
  I   I270      1.0  0.68321  0.26716  0.95894  1.0000
  I   I271      1.0  0.68915  0.51681  0.30241  1.0000
  I   I272      1.0  0.69748  0.53141  0.63771  1.0000
  I   I273      1.0  0.69283  0.52665  0.97300  1.0000
  I   I274      1.0  0.70090  0.75746  0.28133  1.0000
  I   I275      1.0  0.68973  0.75653  0.60515  1.0000
  I   I276      1.0  0.68822  0.76637  0.95596  1.0000
  I   I277      1.0  0.93831  0.01346  0.29883  1.0000
  I   I278      1.0  0.92068  0.01898  0.65284  1.0000
  I   I279      1.0  0.94344  0.01781  0.98173  1.0000
  I   I280      1.0  0.91878  0.26639  0.29744  1.0000
  I   I281      1.0  0.91224  0.26686  0.62906  1.0000
  I   I282      1.0  0.91417  0.27524  0.96502  1.0000
  I   I283      1.0  0.93429  0.51015  0.30186  1.0000
  I   I284      1.0  0.92942  0.51207  0.60354  1.0000
  I   I285      1.0  0.92348  0.51584  0.95757  1.0000
  I   I286      1.0  0.92867  0.77099  0.27840  1.0000
  I   I287      1.0  0.92699  0.77428  0.63215  1.0000
  I   I288      1.0  0.93360  0.76807  0.95735  1.0000
  I   I289      1.0  0.02293  0.17000  0.11586  1.0000
  I   I290      1.0  0.02580  0.18519  0.45239  1.0000
  I   I291      1.0  0.00650  0.19346  0.77324  1.0000
  I   I292      1.0  0.01329  0.41774  0.15601  1.0000
  I   I293      1.0  0.01747  0.41178  0.46002  1.0000
  I   I294      1.0  0.01503  0.41337  0.80346  1.0000
  I   I295      1.0  0.00428  0.68151  0.08953  1.0000
  I   I296      1.0  0.00560  0.67541  0.43634  1.0000
  I   I297      1.0  0.01244  0.69883  0.77479  1.0000
  I   I298      1.0  0.02925  0.91835  0.12352  1.0000
  I   I299      1.0  0.02493  0.94623  0.46902  1.0000
  I   I300      1.0  0.01546  0.93528  0.78728  1.0000
  I   I301      1.0  0.25638  0.17513  0.15304  1.0000
  I   I302      1.0  0.25119  0.18549  0.46830  1.0000
  I   I303      1.0  0.25054  0.18060  0.80289  1.0000
  I   I304      1.0  0.28875  0.42152  0.12749  1.0000
  I   I305      1.0  0.27612  0.41491  0.47521  1.0000
  I   I306      1.0  0.28553  0.42706  0.81327  1.0000
  I   I307      1.0  0.27098  0.67517  0.14162  1.0000
  I   I308      1.0  0.27754  0.68040  0.46981  1.0000
  I   I309      1.0  0.27109  0.69902  0.79550  1.0000
  I   I310      1.0  0.26423  0.92332  0.12014  1.0000
  I   I311      1.0  0.26411  0.92176  0.47322  1.0000
  I   I312      1.0  0.25729  0.92532  0.76737  1.0000
  I   I313      1.0  0.53516  0.17371  0.11597  1.0000
  I   I314      1.0  0.52294  0.17264  0.44878  1.0000
  I   I315      1.0  0.52931  0.16655  0.79392  1.0000
  I   I316      1.0  0.50940  0.41471  0.13875  1.0000
  I   I317      1.0  0.50885  0.42094  0.47060  1.0000
  I   I318      1.0  0.50269  0.43449  0.81995  1.0000
  I   I319      1.0  0.52943  0.64809  0.11940  1.0000
  I   I320      1.0  0.51428  0.67594  0.47156  1.0000
  I   I321      1.0  0.51963  0.67348  0.81214  1.0000
  I   I322      1.0  0.52626  0.92501  0.11880  1.0000
  I   I323      1.0  0.52924  0.92253  0.45236  1.0000
  I   I324      1.0  0.51419  0.93609  0.77805  1.0000
  I   I325      1.0  0.76292  0.17542  0.14677  1.0000
  I   I326      1.0  0.76005  0.16176  0.46397  1.0000
  I   I327      1.0  0.76355  0.18737  0.79575  1.0000
  I   I328      1.0  0.75995  0.45393  0.13998  1.0000
  I   I329      1.0  0.75030  0.43780  0.46336  1.0000
  I   I330      1.0  0.76575  0.42656  0.79159  1.0000
  I   I331      1.0  0.76827  0.68585  0.13569  1.0000
  I   I332      1.0  0.76465  0.68143  0.43650  1.0000
  I   I333      1.0  0.77297  0.68999  0.77209  1.0000
  I   I334      1.0  0.75881  0.93178  0.10991  1.0000
  I   I335      1.0  0.76646  0.92096  0.45352  1.0000
  I   I336      1.0  0.76348  0.91552  0.77762  1.0000
  I   I337      1.0  0.06007  0.24354  0.04156  1.0000
  I   I338      1.0  0.09186  0.22242  0.34079  1.0000
  I   I339      1.0  0.07709  0.22895  0.69371  1.0000
  I   I340      1.0  0.06127  0.48437  0.04265  1.0000
  I   I341      1.0  0.06968  0.48432  0.38393  1.0000
  I   I342      1.0  0.06985  0.47423  0.72312  1.0000
  I   I343      1.0  0.06296  0.73947  0.02599  1.0000
  I   I344      1.0  0.04464  0.74687  0.36855  1.0000
  I   I345      1.0  0.07503  0.73207  0.67011  1.0000
  I   I346      1.0  0.06597  0.99146  0.02125  1.0000
  I   I347      1.0  0.08412  0.99239  0.36872  1.0000
  I   I348      1.0  0.07288  0.99730  0.70202  1.0000
  I   I349      1.0  0.29810  0.24496  0.05133  1.0000
  I   I350      1.0  0.29961  0.23775  0.36637  1.0000
  I   I351      1.0  0.31518  0.23264  0.70289  1.0000
  I   I352      1.0  0.34777  0.46177  0.02782  1.0000
  I   I353      1.0  0.32450  0.46950  0.38473  1.0000
  I   I354      1.0  0.35767  0.45920  0.71602  1.0000
  I   I355      1.0  0.31591  0.73906  0.05587  1.0000
  I   I356      1.0  0.33235  0.73978  0.39467  1.0000
  I   I357      1.0  0.33643  0.73719  0.69970  1.0000
  I   I358      1.0  0.31853  0.98277  0.03428  1.0000
  I   I359      1.0  0.29881  0.98301  0.37204  1.0000
  I   I360      1.0  0.31668  0.98469  0.69302  1.0000
  I   I361      1.0  0.60617  0.21947  0.02830  1.0000
  I   I362      1.0  0.59568  0.21771  0.36840  1.0000
  I   I363      1.0  0.58629  0.21838  0.70011  1.0000
  I   I364      1.0  0.55299  0.48782  0.06141  1.0000
  I   I365      1.0  0.56668  0.47738  0.39777  1.0000
  I   I366      1.0  0.55358  0.49537  0.71719  1.0000
  I   I367      1.0  0.55398  0.74238  0.06925  1.0000
  I   I368      1.0  0.57533  0.72985  0.39199  1.0000
  I   I369      1.0  0.56276  0.75085  0.73355  1.0000
  I   I370      1.0  0.58524  0.97708  0.01633  1.0000
  I   I371      1.0  0.59214  0.97579  0.36595  1.0000
  I   I372      1.0  0.58460  0.97890  0.68394  1.0000
  I   I373      1.0  0.81247  0.23444  0.03714  1.0000
  I   I374      1.0  0.80947  0.23412  0.39189  1.0000
  I   I375      1.0  0.83576  0.22883  0.71114  1.0000
  I   I376      1.0  0.83299  0.48909  0.05008  1.0000
  I   I377      1.0  0.81036  0.49275  0.37533  1.0000
  I   I378      1.0  0.83116  0.47424  0.70398  1.0000
  I   I379      1.0  0.83419  0.72571  0.03326  1.0000
  I   I380      1.0  0.82468  0.73882  0.36224  1.0000
  I   I381      1.0  0.84727  0.73219  0.69556  1.0000
  I   I382      1.0  0.81266  0.99170  0.01482  1.0000
  I   I383      1.0  0.82342  0.98306  0.37669  1.0000
  I   I384      1.0  0.82504  0.97659  0.68705  1.0000
