data_image0
_chemical_formula_structural       Ti96I384
_chemical_formula_sum              "Ti96 I384"
_cell_length_a       48.0655
_cell_length_b       47.5898
_cell_length_c       23.2399
_cell_angle_alpha    88.7757
_cell_angle_beta     88.7757
_cell_angle_gamma    62.1586

_space_group_name_H-M_alt    "P 1"
_space_group_IT_number       1

loop_
  _space_group_symop_operation_xyz
  'x, y, z'

loop_
  _atom_site_type_symbol
  _atom_site_label
  _atom_site_symmetry_multiplicity
  _atom_site_fract_x
  _atom_site_fract_y
  _atom_site_fract_z
  _atom_site_occupancy
  Ti  Ti1       1.0  0.43948  0.94486  0.38505  1.0000
  Ti  Ti2       1.0  0.18459  0.01406  0.96708  1.0000
  Ti  Ti3       1.0  0.32996  0.98329  0.12593  1.0000
  Ti  Ti4       1.0  0.19687  0.20252  0.36018  1.0000
  Ti  Ti5       1.0  0.17488  0.29257  0.80569  1.0000
  Ti  Ti6       1.0  0.20095  0.18953  0.05200  1.0000
  Ti  Ti7       1.0  0.95087  0.68079  0.46694  1.0000
  Ti  Ti8       1.0  0.90698  0.81883  0.63639  1.0000
  Ti  Ti9       1.0  0.92335  0.77346  0.19285  1.0000
  Ti  Ti10      1.0  0.05104  0.82147  0.15389  1.0000
  Ti  Ti11      1.0  0.07147  0.88777  0.74580  1.0000
  Ti  Ti12      1.0  0.11501  0.72816  0.79323  1.0000
  Ti  Ti13      1.0  0.35579  0.25143  0.22356  1.0000
  Ti  Ti14      1.0  0.38106  0.13284  0.67273  1.0000
  Ti  Ti15      1.0  0.36633  0.16084  0.97613  1.0000
  Ti  Ti16      1.0  0.26537  0.64314  0.96030  1.0000
  Ti  Ti17      1.0  0.20790  0.56781  0.19801  1.0000
  Ti  Ti18      1.0  0.31727  0.46730  0.68478  1.0000
  Ti  Ti19      1.0  0.32780  0.78041  0.17406  1.0000
  Ti  Ti20      1.0  0.45241  0.66594  0.78899  1.0000
  Ti  Ti21      1.0  0.26167  0.71762  0.37262  1.0000
  Ti  Ti22      1.0  0.34690  0.83234  0.74458  1.0000
  Ti  Ti23      1.0  0.52513  0.82209  0.97535  1.0000
  Ti  Ti24      1.0  0.44861  0.75463  0.47155  1.0000
  Ti  Ti25      1.0  0.58220  0.22801  0.57350  1.0000
  Ti  Ti26      1.0  0.55344  0.24873  0.88330  1.0000
  Ti  Ti27      1.0  0.63150  0.20706  0.26383  1.0000
  Ti  Ti28      1.0  0.66214  0.36251  0.27854  1.0000
  Ti  Ti29      1.0  0.70317  0.40351  0.66001  1.0000
  Ti  Ti30      1.0  0.65329  0.38594  0.93460  1.0000
  Ti  Ti31      1.0  0.70333  0.53253  0.28022  1.0000
  Ti  Ti32      1.0  0.76458  0.53593  0.68173  1.0000
  Ti  Ti33      1.0  0.70790  0.51344  0.95951  1.0000
  Ti  Ti34      1.0  0.80771  0.66917  0.00036  1.0000
  Ti  Ti35      1.0  0.69671  0.85072  0.30916  1.0000
  Ti  Ti36      1.0  0.72984  0.73344  0.70612  1.0000
  Ti  Ti37      1.0  0.86666  0.12118  0.96897  1.0000
  Ti  Ti38      1.0  0.87698  0.12432  0.29067  1.0000
  Ti  Ti39      1.0  0.82594  0.13049  0.64507  1.0000
  Ti  Ti40      1.0  0.98267  0.30669  0.10545  1.0000
  Ti  Ti41      1.0  0.95264  0.29751  0.54576  1.0000
  Ti  Ti42      1.0  0.02824  0.10493  0.61187  1.0000
  Ti  Ti43      1.0  0.92861  0.51447  0.27393  1.0000
  Ti  Ti44      1.0  0.97860  0.48652  0.60692  1.0000
  Ti  Ti45      1.0  0.06522  0.49996  0.86635  1.0000
  Ti  Ti46      1.0  0.75846  0.01802  0.41470  1.0000
  Ti  Ti47      1.0  0.72646  0.01619  0.72850  1.0000
  Ti  Ti48      1.0  0.65902  0.04318  0.02076  1.0000
  Ti  Ti49      1.0  0.35599  0.01969  0.29624  1.0000
  Ti  Ti50      1.0  0.10500  0.02255  0.93123  1.0000
  Ti  Ti51      1.0  0.23004  0.98779  0.14421  1.0000
  Ti  Ti52      1.0  0.13049  0.22866  0.25178  1.0000
  Ti  Ti53      1.0  0.12577  0.33094  0.64614  1.0000
  Ti  Ti54      1.0  0.17111  0.20377  0.87049  1.0000
  Ti  Ti55      1.0  0.98741  0.68526  0.31384  1.0000
  Ti  Ti56      1.0  0.93660  0.89417  0.64551  1.0000
  Ti  Ti57      1.0  0.92190  0.80461  0.04366  1.0000
  Ti  Ti58      1.0  0.00616  0.91381  0.08731  1.0000
  Ti  Ti59      1.0  0.05363  0.85097  0.31765  1.0000
  Ti  Ti60      1.0  0.11852  0.79958  0.82581  1.0000
  Ti  Ti61      1.0  0.30851  0.26695  0.04409  1.0000
  Ti  Ti62      1.0  0.33749  0.30758  0.38253  1.0000
  Ti  Ti63      1.0  0.30352  0.21064  0.65661  1.0000
  Ti  Ti64      1.0  0.40567  0.43839  0.72527  1.0000
  Ti  Ti65      1.0  0.24824  0.56643  0.02604  1.0000
  Ti  Ti66      1.0  0.21159  0.49035  0.28570  1.0000
  Ti  Ti67      1.0  0.24865  0.76333  0.22733  1.0000
  Ti  Ti68      1.0  0.49430  0.67752  0.96444  1.0000
  Ti  Ti69      1.0  0.21902  0.69336  0.46989  1.0000
  Ti  Ti70      1.0  0.36707  0.81905  0.59881  1.0000
  Ti  Ti71      1.0  0.54359  0.88551  0.86627  1.0000
  Ti  Ti72      1.0  0.49685  0.81051  0.12291  1.0000
  Ti  Ti73      1.0  0.56573  0.20722  0.39405  1.0000
  Ti  Ti74      1.0  0.52574  0.21206  0.72826  1.0000
  Ti  Ti75      1.0  0.51047  0.24841  0.03806  1.0000
  Ti  Ti76      1.0  0.58380  0.38420  0.06598  1.0000
  Ti  Ti77      1.0  0.58341  0.43729  0.37821  1.0000
  Ti  Ti78      1.0  0.62577  0.39132  0.75156  1.0000
  Ti  Ti79      1.0  0.71809  0.56681  0.11447  1.0000
  Ti  Ti80      1.0  0.71453  0.61093  0.37841  1.0000
  Ti  Ti81      1.0  0.72647  0.57058  0.82624  1.0000
  Ti  Ti82      1.0  0.72635  0.74193  0.89194  1.0000
  Ti  Ti83      1.0  0.65828  0.83939  0.17659  1.0000
  Ti  Ti84      1.0  0.67285  0.83925  0.60976  1.0000
  Ti  Ti85      1.0  0.83136  0.17755  0.79037  1.0000
  Ti  Ti86      1.0  0.82956  0.18579  0.13269  1.0000
  Ti  Ti87      1.0  0.80096  0.19814  0.45484  1.0000
  Ti  Ti88      1.0  0.90067  0.31303  0.10027  1.0000
  Ti  Ti89      1.0  0.87807  0.29155  0.61228  1.0000
  Ti  Ti90      1.0  0.06722  0.02457  0.51288  1.0000
  Ti  Ti91      1.0  0.07826  0.57114  0.96438  1.0000
  Ti  Ti92      1.0  0.92197  0.52307  0.44625  1.0000
  Ti  Ti93      1.0  0.99202  0.55185  0.72969  1.0000
  Ti  Ti94      1.0  0.65300  0.01076  0.17369  1.0000
  Ti  Ti95      1.0  0.74909  0.97911  0.55751  1.0000
  Ti  Ti96      1.0  0.68515  0.98534  0.86062  1.0000
  I   I1        1.0  0.10813  0.00039  0.82831  1.0000
  I   I2        1.0  0.21238  0.96109  0.05722  1.0000
  I   I3        1.0  0.33163  0.98062  0.24886  1.0000
  I   I4        1.0  0.14978  0.28008  0.57527  1.0000
  I   I5        1.0  0.19392  0.23207  0.77814  1.0000
  I   I6        1.0  0.14842  0.21280  0.11440  1.0000
  I   I7        1.0  0.96460  0.89497  0.74026  1.0000
  I   I8        1.0  0.85958  0.84651  0.70540  1.0000
  I   I9        1.0  0.98838  0.73446  0.26799  1.0000
  I   I10       1.0  0.10212  0.81967  0.23922  1.0000
  I   I11       1.0  0.13812  0.81073  0.91795  1.0000
  I   I12       1.0  0.95322  0.95187  0.13023  1.0000
  I   I13       1.0  0.30921  0.28701  0.30822  1.0000
  I   I14       1.0  0.39079  0.08551  0.59739  1.0000
  I   I15       1.0  0.30181  0.22066  0.98319  1.0000
  I   I16       1.0  0.29465  0.57398  0.97490  1.0000
  I   I17       1.0  0.23371  0.50072  0.17388  1.0000
  I   I18       1.0  0.37109  0.47137  0.64085  1.0000
  I   I19       1.0  0.44180  0.71347  0.89630  1.0000
  I   I20       1.0  0.16454  0.73895  0.49305  1.0000
  I   I21       1.0  0.22313  0.77852  0.33831  1.0000
  I   I22       1.0  0.50507  0.94788  0.88508  1.0000
  I   I23       1.0  0.56320  0.85990  0.97686  1.0000
  I   I24       1.0  0.31693  0.83195  0.53160  1.0000
  I   I25       1.0  0.55892  0.18358  0.62590  1.0000
  I   I26       1.0  0.52990  0.20793  0.94757  1.0000
  I   I27       1.0  0.60839  0.16365  0.31060  1.0000
  I   I28       1.0  0.60810  0.37141  0.34028  1.0000
  I   I29       1.0  0.65773  0.37908  0.64070  1.0000
  I   I30       1.0  0.61092  0.35373  0.95653  1.0000
  I   I31       1.0  0.67790  0.60200  0.30207  1.0000
  I   I32       1.0  0.70993  0.59261  0.71308  1.0000
  I   I33       1.0  0.68090  0.57564  0.01650  1.0000
  I   I34       1.0  0.65796  0.84963  0.06259  1.0000
  I   I35       1.0  0.70414  0.86352  0.55978  1.0000
  I   I36       1.0  0.73278  0.69351  0.81066  1.0000
  I   I37       1.0  0.81643  0.17753  0.00683  1.0000
  I   I38       1.0  0.81177  0.15513  0.37487  1.0000
  I   I39       1.0  0.79299  0.18456  0.69310  1.0000
  I   I40       1.0  0.82439  0.32768  0.54998  1.0000
  I   I41       1.0  0.07892  0.96590  0.54235  1.0000
  I   I42       1.0  0.92418  0.36023  0.12469  1.0000
  I   I43       1.0  0.88781  0.50723  0.37753  1.0000
  I   I44       1.0  0.94940  0.53614  0.69740  1.0000
  I   I45       1.0  0.03226  0.55077  0.95764  1.0000
  I   I46       1.0  0.80534  0.95219  0.49765  1.0000
  I   I47       1.0  0.74229  0.95623  0.77987  1.0000
  I   I48       1.0  0.68128  0.97623  0.06899  1.0000
  I   I49       1.0  0.37867  0.05677  0.32929  1.0000
  I   I50       1.0  0.12712  0.04403  0.02918  1.0000
  I   I51       1.0  0.26398  0.02757  0.15161  1.0000
  I   I52       1.0  0.12567  0.23720  0.36316  1.0000
  I   I53       1.0  0.11828  0.30470  0.74810  1.0000
  I   I54       1.0  0.18558  0.15309  0.98584  1.0000
  I   I55       1.0  0.94832  0.66007  0.35549  1.0000
  I   I56       1.0  0.89971  0.87471  0.57697  1.0000
  I   I57       1.0  0.95339  0.73601  0.09697  1.0000
  I   I58       1.0  0.08703  0.76247  0.13400  1.0000
  I   I59       1.0  0.08261  0.88733  0.31027  1.0000
  I   I60       1.0  0.08959  0.78559  0.73660  1.0000
  I   I61       1.0  0.33484  0.29089  0.12281  1.0000
  I   I62       1.0  0.39324  0.27299  0.43129  1.0000
  I   I63       1.0  0.28614  0.26934  0.64210  1.0000
  I   I64       1.0  0.22517  0.68835  0.90455  1.0000
  I   I65       1.0  0.19052  0.57184  0.07531  1.0000
  I   I66       1.0  0.19679  0.44902  0.24052  1.0000
  I   I67       1.0  0.29300  0.75417  0.13508  1.0000
  I   I68       1.0  0.39731  0.69947  0.75009  1.0000
  I   I69       1.0  0.20515  0.71762  0.33276  1.0000
  I   I70       1.0  0.40276  0.79416  0.69382  1.0000
  I   I71       1.0  0.57396  0.79786  0.88840  1.0000
  I   I72       1.0  0.44693  0.81065  0.08855  1.0000
  I   I73       1.0  0.53260  0.24948  0.49159  1.0000
  I   I74       1.0  0.50521  0.25862  0.80447  1.0000
  I   I75       1.0  0.52978  0.27957  0.10394  1.0000
  I   I76       1.0  0.62976  0.43068  0.28819  1.0000
  I   I77       1.0  0.53909  0.42178  0.40362  1.0000
  I   I78       1.0  0.59983  0.43021  0.84990  1.0000
  I   I79       1.0  0.74447  0.55538  0.22022  1.0000
  I   I80       1.0  0.77064  0.58707  0.42926  1.0000
  I   I81       1.0  0.75837  0.52952  0.90712  1.0000
  I   I82       1.0  0.72639  0.78005  0.97488  1.0000
  I   I83       1.0  0.68379  0.88316  0.20568  1.0000
  I   I84       1.0  0.67207  0.79660  0.70796  1.0000
  I   I85       1.0  0.88225  0.15266  0.86485  1.0000
  I   I86       1.0  0.84360  0.19062  0.24387  1.0000
  I   I87       1.0  0.81273  0.21772  0.55054  1.0000
  I   I88       1.0  0.86084  0.31996  0.02468  1.0000
  I   I89       1.0  0.94278  0.26065  0.63732  1.0000
  I   I90       1.0  0.07499  0.08375  0.51729  1.0000
  I   I91       1.0  0.11316  0.54975  0.05810  1.0000
  I   I92       1.0  0.96497  0.53133  0.51129  1.0000
  I   I93       1.0  0.05483  0.53882  0.77088  1.0000
  I   I94       1.0  0.61218  0.99270  0.20763  1.0000
  I   I95       1.0  0.69498  0.00966  0.63198  1.0000
  I   I96       1.0  0.62859  0.02384  0.92866  1.0000
  I   I97       1.0  0.35338  0.02824  0.17897  1.0000
  I   I98       1.0  0.44171  0.96018  0.49450  1.0000
  I   I99       1.0  0.21174  0.04570  0.02620  1.0000
  I   I100      1.0  0.18025  0.24358  0.24094  1.0000
  I   I101      1.0  0.20425  0.16576  0.45432  1.0000
  I   I102      1.0  0.14903  0.26876  0.90566  1.0000
  I   I103      1.0  0.92280  0.72105  0.23619  1.0000
  I   I104      1.0  0.98641  0.61993  0.48595  1.0000
  I   I105      1.0  0.88256  0.80020  0.97345  1.0000
  I   I106      1.0  0.06903  0.71213  0.77099  1.0000
  I   I107      1.0  0.03642  0.80662  0.26533  1.0000
  I   I108      1.0  0.05914  0.86032  0.84532  1.0000
  I   I109      1.0  0.36731  0.21523  0.01962  1.0000
  I   I110      1.0  0.36114  0.31131  0.26846  1.0000
  I   I111      1.0  0.31564  0.14850  0.69365  1.0000
  I   I112      1.0  0.35587  0.47181  0.79441  1.0000
  I   I113      1.0  0.21157  0.62762  0.00771  1.0000
  I   I114      1.0  0.16032  0.55591  0.22831  1.0000
  I   I115      1.0  0.28745  0.69531  0.25418  1.0000
  I   I116      1.0  0.33489  0.79276  0.06656  1.0000
  I   I117      1.0  0.46731  0.61394  0.73104  1.0000
  I   I118      1.0  0.40152  0.75021  0.54016  1.0000
  I   I119      1.0  0.36386  0.86384  0.81307  1.0000
  I   I120      1.0  0.55553  0.78458  0.05913  1.0000
  I   I121      1.0  0.59273  0.24385  0.35016  1.0000
  I   I122      1.0  0.54085  0.25387  0.66042  1.0000
  I   I123      1.0  0.50441  0.29530  0.95124  1.0000
  I   I124      1.0  0.62775  0.41162  0.04648  1.0000
  I   I125      1.0  0.69176  0.36143  0.36832  1.0000
  I   I126      1.0  0.66089  0.42640  0.76064  1.0000
  I   I127      1.0  0.74899  0.50038  0.06613  1.0000
  I   I128      1.0  0.71987  0.54385  0.39549  1.0000
  I   I129      1.0  0.73877  0.51113  0.75927  1.0000
  I   I130      1.0  0.74453  0.76719  0.80843  1.0000
  I   I131      1.0  0.81231  0.64538  0.10994  1.0000
  I   I132      1.0  0.64761  0.84055  0.30688  1.0000
  I   I133      1.0  0.87571  0.12520  0.70927  1.0000
  I   I134      1.0  0.88522  0.14574  0.04802  1.0000
  I   I135      1.0  0.89243  0.14245  0.39240  1.0000
  I   I136      1.0  0.05046  0.14297  0.63986  1.0000
  I   I137      1.0  0.01102  0.34200  0.11359  1.0000
  I   I138      1.0  0.00537  0.24776  0.51227  1.0000
  I   I139      1.0  0.11175  0.50775  0.90760  1.0000
  I   I140      1.0  0.97324  0.48310  0.36900  1.0000
  I   I141      1.0  0.02187  0.50680  0.63010  1.0000
  I   I142      1.0  0.60894  0.05694  0.08739  1.0000
  I   I143      1.0  0.74333  0.04649  0.52296  1.0000
  I   I144      1.0  0.66650  0.03818  0.79900  1.0000
  I   I145      1.0  0.41513  0.96439  0.27232  1.0000
  I   I146      1.0  0.16035  0.97121  0.95068  1.0000
  I   I147      1.0  0.29817  0.94749  0.09181  1.0000
  I   I148      1.0  0.18256  0.16473  0.28764  1.0000
  I   I149      1.0  0.18497  0.31688  0.69807  1.0000
  I   I150      1.0  0.22362  0.19055  0.93481  1.0000
  I   I151      1.0  0.95149  0.73330  0.39835  1.0000
  I   I152      1.0  0.88497  0.79875  0.55343  1.0000
  I   I153      1.0  0.94824  0.81199  0.14797  1.0000
  I   I154      1.0  0.07765  0.84298  0.07288  1.0000
  I   I155      1.0  0.01613  0.93810  0.78559  1.0000
  I   I156      1.0  0.08571  0.77475  0.88983  1.0000
  I   I157      1.0  0.31599  0.23344  0.17177  1.0000
  I   I158      1.0  0.43365  0.13337  0.66854  1.0000
  I   I159      1.0  0.33406  0.13654  0.92542  1.0000
  I   I160      1.0  0.42727  0.47899  0.75142  1.0000
  I   I161      1.0  0.25669  0.57580  0.14795  1.0000
  I   I162      1.0  0.29861  0.47081  0.58259  1.0000
  I   I163      1.0  0.29761  0.78185  0.28060  1.0000
  I   I164      1.0  0.51777  0.63150  0.04146  1.0000
  I   I165      1.0  0.24685  0.74021  0.47898  1.0000
  I   I166      1.0  0.32847  0.79454  0.67020  1.0000
  I   I167      1.0  0.49417  0.86958  0.88327  1.0000
  I   I168      1.0  0.44830  0.71423  0.39906  1.0000
  I   I169      1.0  0.62188  0.19118  0.46916  1.0000
  I   I170      1.0  0.58252  0.19354  0.79639  1.0000
  I   I171      1.0  0.61736  0.19040  0.16131  1.0000
  I   I172      1.0  0.60301  0.37195  0.17122  1.0000
  I   I173      1.0  0.75743  0.39105  0.70787  1.0000
  I   I174      1.0  0.68099  0.35229  0.84462  1.0000
  I   I175      1.0  0.66818  0.55632  0.17929  1.0000
  I   I176      1.0  0.79357  0.56895  0.62156  1.0000
  I   I177      1.0  0.67489  0.55412  0.87756  1.0000
  I   I178      1.0  0.79611  0.69510  0.88923  1.0000
  I   I179      1.0  0.72285  0.79800  0.23268  1.0000
  I   I180      1.0  0.69689  0.70910  0.65610  1.0000
  I   I181      1.0  0.82097  0.13017  0.86214  1.0000
  I   I182      1.0  0.84746  0.12566  0.18162  1.0000
  I   I183      1.0  0.78910  0.15705  0.54143  1.0000
  I   I184      1.0  0.94938  0.29781  0.01985  1.0000
  I   I185      1.0  0.93180  0.31920  0.44288  1.0000
  I   I186      1.0  0.06525  0.03846  0.63126  1.0000
  I   I187      1.0  0.88800  0.56100  0.21381  1.0000
  I   I188      1.0  0.92540  0.48748  0.54534  1.0000
  I   I189      1.0  0.01299  0.49964  0.81373  1.0000
  I   I190      1.0  0.77416  0.97364  0.33785  1.0000
  I   I191      1.0  0.77693  0.98451  0.65083  1.0000
  I   I192      1.0  0.70049  0.03267  0.93651  1.0000
  I   I193      1.0  0.47544  0.96729  0.34792  1.0000
  I   I194      1.0  0.14888  0.05134  0.88552  1.0000
  I   I195      1.0  0.32627  0.01466  0.02833  1.0000
  I   I196      1.0  0.20254  0.24926  0.39562  1.0000
  I   I197      1.0  0.15449  0.35319  0.84922  1.0000
  I   I198      1.0  0.21651  0.23280  0.08013  1.0000
  I   I199      1.0  0.90612  0.68019  0.53067  1.0000
  I   I200      1.0  0.96486  0.82631  0.66155  1.0000
  I   I201      1.0  0.87629  0.79845  0.12781  1.0000
  I   I202      1.0  0.00361  0.85293  0.06167  1.0000
  I   I203      1.0  0.09953  0.92128  0.72681  1.0000
  I   I204      1.0  0.13461  0.68211  0.87063  1.0000
  I   I205      1.0  0.41380  0.22633  0.18233  1.0000
  I   I206      1.0  0.34312  0.20694  0.74838  1.0000
  I   I207      1.0  0.42426  0.13001  0.94527  1.0000
  I   I208      1.0  0.27407  0.65814  0.05972  1.0000
  I   I209      1.0  0.19166  0.61974  0.25489  1.0000
  I   I210      1.0  0.27289  0.45122  0.72560  1.0000
  I   I211      1.0  0.37148  0.72401  0.20986  1.0000
  I   I212      1.0  0.54207  0.67293  0.91049  1.0000
  I   I213      1.0  0.27264  0.65698  0.41854  1.0000
  I   I214      1.0  0.35374  0.78971  0.82461  1.0000
  I   I215      1.0  0.50385  0.78303  0.94297  1.0000
  I   I216      1.0  0.47420  0.78315  0.40902  1.0000
  I   I217      1.0  0.59871  0.27273  0.55007  1.0000
  I   I218      1.0  0.57541  0.28026  0.83201  1.0000
  I   I219      1.0  0.62879  0.25542  0.20824  1.0000
  I   I220      1.0  0.69327  0.37490  0.19758  1.0000
  I   I221      1.0  0.71959  0.37981  0.55719  1.0000
  I   I222      1.0  0.68250  0.42109  0.93896  1.0000
  I   I223      1.0  0.74901  0.47618  0.28930  1.0000
  I   I224      1.0  0.81280  0.48705  0.64171  1.0000
  I   I225      1.0  0.74115  0.45730  0.92552  1.0000
  I   I226      1.0  0.84724  0.69177  0.01398  1.0000
  I   I227      1.0  0.66924  0.90354  0.36690  1.0000
  I   I228      1.0  0.72886  0.77637  0.61440  1.0000
  I   I229      1.0  0.92209  0.07678  0.94398  1.0000
  I   I230      1.0  0.93287  0.11155  0.25050  1.0000
  I   I231      1.0  0.87746  0.09441  0.57603  1.0000
  I   I232      1.0  0.03440  0.24981  0.07312  1.0000
  I   I233      1.0  0.89384  0.33707  0.59627  1.0000
  I   I234      1.0  0.99774  0.10834  0.70661  1.0000
  I   I235      1.0  0.97696  0.51613  0.21180  1.0000
  I   I236      1.0  0.01415  0.44249  0.53522  1.0000
  I   I237      1.0  0.10062  0.44378  0.80774  1.0000
  I   I238      1.0  0.71249  0.07368  0.37659  1.0000
  I   I239      1.0  0.70181  0.07386  0.69030  1.0000
  I   I240      1.0  0.62947  0.10390  0.99038  1.0000
  I   I241      1.0  0.46355  0.88508  0.38390  1.0000
  I   I242      1.0  0.23288  0.98259  0.90292  1.0000
  I   I243      1.0  0.38210  0.93094  0.12474  1.0000
  I   I244      1.0  0.25702  0.17687  0.31439  1.0000
  I   I245      1.0  0.22940  0.28317  0.83334  1.0000
  I   I246      1.0  0.24136  0.14460  0.11919  1.0000
  I   I247      1.0  0.97463  0.70179  0.54509  1.0000
  I   I248      1.0  0.93103  0.76722  0.69252  1.0000
  I   I249      1.0  0.89928  0.81879  0.26959  1.0000
  I   I250      1.0  0.02643  0.88237  0.19665  1.0000
  I   I251      1.0  0.06528  0.87971  0.63459  1.0000
  I   I252      1.0  0.14518  0.70397  0.69101  1.0000
  I   I253      1.0  0.37902  0.21015  0.31260  1.0000
  I   I254      1.0  0.38597  0.10837  0.77958  1.0000
  I   I255      1.0  0.37106  0.13251  0.07342  1.0000
  I   I256      1.0  0.31647  0.63921  0.90403  1.0000
  I   I257      1.0  0.23542  0.53644  0.30601  1.0000
  I   I258      1.0  0.26771  0.52908  0.71005  1.0000
  I   I259      1.0  0.33433  0.82706  0.21474  1.0000
  I   I260      1.0  0.48454  0.68978  0.74584  1.0000
  I   I261      1.0  0.32590  0.69983  0.39196  1.0000
  I   I262      1.0  0.28650  0.86628  0.74770  1.0000
  I   I263      1.0  0.47801  0.86597  0.04219  1.0000
  I   I264      1.0  0.49224  0.72060  0.55204  1.0000
  I   I265      1.0  0.63290  0.19022  0.63075  1.0000
  I   I266      1.0  0.59898  0.22948  0.96064  1.0000
  I   I267      1.0  0.69343  0.17565  0.27617  1.0000
  I   I268      1.0  0.69020  0.30170  0.25468  1.0000
  I   I269      1.0  0.67877  0.46194  0.62379  1.0000
  I   I270      1.0  0.68524  0.33799  0.01083  1.0000
  I   I271      1.0  0.66272  0.51262  0.31185  1.0000
  I   I272      1.0  0.73637  0.52797  0.59711  1.0000
  I   I273      1.0  0.66358  0.50354  0.00834  1.0000
  I   I274      1.0  0.84352  0.61190  0.97027  1.0000
  I   I275      1.0  0.73253  0.81273  0.39239  1.0000
  I   I276      1.0  0.78181  0.69302  0.66339  1.0000
  I   I277      1.0  0.85257  0.08197  0.02359  1.0000
  I   I278      1.0  0.88840  0.06933  0.33007  1.0000
  I   I279      1.0  0.81796  0.08365  0.69434  1.0000
  I   I280      1.0  0.98582  0.28478  0.20780  1.0000
  I   I281      1.0  0.97488  0.33639  0.57110  1.0000
  I   I282      1.0  0.97603  0.13840  0.56093  1.0000
  I   I283      1.0  0.94135  0.45895  0.23186  1.0000
  I   I284      1.0  0.98138  0.43790  0.68121  1.0000
  I   I285      1.0  0.07924  0.45793  0.95450  1.0000
  I   I286      1.0  0.80046  0.03490  0.37195  1.0000
  I   I287      1.0  0.76078  0.02624  0.80565  1.0000
  I   I288      1.0  0.70037  0.04438  0.09312  1.0000
  I   I289      1.0  0.37292  0.97880  0.40540  1.0000
  I   I290      1.0  0.07187  0.00461  0.99496  1.0000
  I   I291      1.0  0.24130  0.95379  0.23978  1.0000
  I   I292      1.0  0.08766  0.21173  0.24567  1.0000
  I   I293      1.0  0.07158  0.34657  0.61057  1.0000
  I   I294      1.0  0.19939  0.14817  0.81926  1.0000
  I   I295      1.0  0.03774  0.65364  0.38834  1.0000
  I   I296      1.0  0.97046  0.89783  0.56091  1.0000
  I   I297      1.0  0.89269  0.86475  0.04885  1.0000
  I   I298      1.0  0.03798  0.94433  0.10829  1.0000
  I   I299      1.0  0.07778  0.81768  0.40753  1.0000
  I   I300      1.0  0.17048  0.73936  0.80762  1.0000
  I   I301      1.0  0.25011  0.29741  0.07700  1.0000
  I   I302      1.0  0.29293  0.32166  0.46517  1.0000
  I   I303      1.0  0.25439  0.21117  0.60950  1.0000
  I   I304      1.0  0.46251  0.39031  0.71280  1.0000
  I   I305      1.0  0.29627  0.50651  0.03422  1.0000
  I   I306      1.0  0.17651  0.50006  0.37907  1.0000
  I   I307      1.0  0.22195  0.82016  0.18890  1.0000
  I   I308      1.0  0.49208  0.63456  0.87762  1.0000
  I   I309      1.0  0.19670  0.65346  0.43796  1.0000
  I   I310      1.0  0.36050  0.87378  0.63401  1.0000
  I   I311      1.0  0.60456  0.87508  0.87562  1.0000
  I   I312      1.0  0.49721  0.84357  0.20851  1.0000
  I   I313      1.0  0.54759  0.16415  0.42919  1.0000
  I   I314      1.0  0.52423  0.16056  0.76151  1.0000
  I   I315      1.0  0.51833  0.20634  0.12005  1.0000
  I   I316      1.0  0.54284  0.36274  0.05908  1.0000
  I   I317      1.0  0.55837  0.49742  0.37493  1.0000
  I   I318      1.0  0.62090  0.33774  0.74542  1.0000
  I   I319      1.0  0.68067  0.62756  0.12314  1.0000
  I   I320      1.0  0.67649  0.63071  0.46604  1.0000
  I   I321      1.0  0.70963  0.62607  0.87125  1.0000
  I   I322      1.0  0.73727  0.70182  0.99274  1.0000
  I   I323      1.0  0.64892  0.78854  0.15788  1.0000
  I   I324      1.0  0.64445  0.82842  0.52486  1.0000
  I   I325      1.0  0.77897  0.21610  0.85456  1.0000
  I   I326      1.0  0.76975  0.21253  0.14024  1.0000
  I   I327      1.0  0.73908  0.21989  0.46531  1.0000
  I   I328      1.0  0.87260  0.33359  0.19972  1.0000
  I   I329      1.0  0.88378  0.23750  0.58859  1.0000
  I   I330      1.0  0.00854  0.05559  0.49326  1.0000
  I   I331      1.0  0.03685  0.62228  0.01352  1.0000
  I   I332      1.0  0.87263  0.57698  0.48167  1.0000
  I   I333      1.0  0.94936  0.59829  0.79005  1.0000
  I   I334      1.0  0.63135  0.06460  0.22533  1.0000
  I   I335      1.0  0.75201  0.92399  0.58016  1.0000
  I   I336      1.0  0.72668  0.93489  0.92525  1.0000
  I   I337      1.0  0.30470  0.05213  0.34944  1.0000
  I   I338      1.0  0.06582  0.08436  0.92851  1.0000
  I   I339      1.0  0.17359  0.03220  0.17726  1.0000
  I   I340      1.0  0.09692  0.28801  0.21999  1.0000
  I   I341      1.0  0.12973  0.37408  0.58296  1.0000
  I   I342      1.0  0.11783  0.20494  0.86823  1.0000
  I   I343      1.0  0.00706  0.64288  0.22825  1.0000
  I   I344      1.0  0.89379  0.95160  0.64682  1.0000
  I   I345      1.0  0.96267  0.79278  0.95969  1.0000
  I   I346      1.0  0.98773  0.92977  0.98102  1.0000
  I   I347      1.0  0.99034  0.89306  0.34488  1.0000
  I   I348      1.0  0.12903  0.83241  0.73530  1.0000
  I   I349      1.0  0.30556  0.30891  0.96707  1.0000
  I   I350      1.0  0.33219  0.36784  0.39513  1.0000
  I   I351      1.0  0.35222  0.17896  0.58752  1.0000
  I   I352      1.0  0.36965  0.40393  0.69634  1.0000
  I   I353      1.0  0.22379  0.55411  0.93062  1.0000
  I   I354      1.0  0.26169  0.44188  0.32860  1.0000
  I   I355      1.0  0.22138  0.73950  0.17008  1.0000
  I   I356      1.0  0.48856  0.71779  0.04267  1.0000
  I   I357      1.0  0.23495  0.67950  0.57837  1.0000
  I   I358      1.0  0.41207  0.81905  0.52462  1.0000
  I   I359      1.0  0.54846  0.88200  0.75604  1.0000
  I   I360      1.0  0.50592  0.75650  0.17376  1.0000
  I   I361      1.0  0.51865  0.22846  0.33019  1.0000
  I   I362      1.0  0.46429  0.23505  0.69376  1.0000
  I   I363      1.0  0.44623  0.27927  0.03995  1.0000
  I   I364      1.0  0.54223  0.44336  0.06155  1.0000
  I   I365      1.0  0.61461  0.42252  0.47266  1.0000
  I   I366      1.0  0.57325  0.42379  0.69665  1.0000
  I   I367      1.0  0.76268  0.57574  0.06491  1.0000
  I   I368      1.0  0.70701  0.66659  0.34394  1.0000
  I   I369      1.0  0.78920  0.55190  0.77432  1.0000
  I   I370      1.0  0.66455  0.77785  0.87885  1.0000
  I   I371      1.0  0.59451  0.87271  0.17453  1.0000
  I   I372      1.0  0.63530  0.88709  0.67144  1.0000
  I   I373      1.0  0.84547  0.22152  0.74929  1.0000
  I   I374      1.0  0.82989  0.23962  0.11188  1.0000
  I   I375      1.0  0.81302  0.24138  0.40563  1.0000
  I   I376      1.0  0.92634  0.25400  0.12055  1.0000
  I   I377      1.0  0.85379  0.30594  0.71405  1.0000
  I   I378      1.0  0.10034  0.00674  0.41748  1.0000
  I   I379      1.0  0.09935  0.60356  0.90268  1.0000
  I   I380      1.0  0.91778  0.57155  0.37226  1.0000
  I   I381      1.0  0.99174  0.59354  0.65277  1.0000
  I   I382      1.0  0.69919  0.97088  0.23164  1.0000
  I   I383      1.0  0.71439  0.99694  0.46072  1.0000
  I   I384      1.0  0.65390  0.96214  0.81403  1.0000
