data_image0
_chemical_formula_structural       Ti96I384
_chemical_formula_sum              "Ti96 I384"
_cell_length_a       62.5055
_cell_length_b       62.3167
_cell_length_c       30.405
_cell_angle_alpha    88.7757
_cell_angle_beta     88.7757
_cell_angle_gamma    62.1586

_space_group_name_H-M_alt    "P 1"
_space_group_IT_number       1

loop_
  _space_group_symop_operation_xyz
  'x, y, z'

loop_
  _atom_site_type_symbol
  _atom_site_label
  _atom_site_symmetry_multiplicity
  _atom_site_fract_x
  _atom_site_fract_y
  _atom_site_fract_z
  _atom_site_occupancy
  Ti  Ti1       1.0  0.62299  0.98826  0.57161  1.0000
  Ti  Ti2       1.0  0.47109  0.16065  0.27674  1.0000
  Ti  Ti3       1.0  0.04410  0.47344  0.15191  1.0000
  Ti  Ti4       1.0  0.46108  0.48984  0.78498  1.0000
  Ti  Ti5       1.0  0.20970  0.78634  0.02465  1.0000
  Ti  Ti6       1.0  0.43946  0.13979  0.72325  1.0000
  Ti  Ti7       1.0  0.01107  0.90369  0.68088  1.0000
  Ti  Ti8       1.0  0.21708  0.57999  0.36098  1.0000
  Ti  Ti9       1.0  0.22409  0.95528  0.81838  1.0000
  Ti  Ti10      1.0  0.96557  0.82630  0.86090  1.0000
  Ti  Ti11      1.0  0.34095  0.54733  0.98499  1.0000
  Ti  Ti12      1.0  0.20542  0.68468  0.55066  1.0000
  Ti  Ti13      1.0  0.37223  0.33461  0.41680  1.0000
  Ti  Ti14      1.0  0.12005  0.98494  0.53121  1.0000
  Ti  Ti15      1.0  0.39253  0.85592  0.13380  1.0000
  Ti  Ti16      1.0  0.95990  0.63913  0.85403  1.0000
  Ti  Ti17      1.0  0.09571  0.29700  0.25194  1.0000
  Ti  Ti18      1.0  0.80256  0.56829  0.65362  1.0000
  Ti  Ti19      1.0  0.93599  0.90912  0.49775  1.0000
  Ti  Ti20      1.0  0.20553  0.13541  0.66436  1.0000
  Ti  Ti21      1.0  0.76291  0.27339  0.21208  1.0000
  Ti  Ti22      1.0  0.59730  0.71132  0.19796  1.0000
  Ti  Ti23      1.0  0.70091  0.82923  0.96622  1.0000
  Ti  Ti24      1.0  0.27348  0.77766  0.59055  1.0000
  Ti  Ti25      1.0  0.28485  0.31699  0.69008  1.0000
  Ti  Ti26      1.0  0.05595  0.21477  0.27738  1.0000
  Ti  Ti27      1.0  0.09331  0.64977  0.80441  1.0000
  Ti  Ti28      1.0  0.64475  0.50349  0.31220  1.0000
  Ti  Ti29      1.0  0.03142  0.96264  0.18385  1.0000
  Ti  Ti30      1.0  0.91311  0.43784  0.31856  1.0000
  Ti  Ti31      1.0  0.67171  0.39046  0.62019  1.0000
  Ti  Ti32      1.0  0.68173  0.06600  0.02621  1.0000
  Ti  Ti33      1.0  0.34301  0.84721  0.38836  1.0000
  Ti  Ti34      1.0  0.63747  0.74822  0.67175  1.0000
  Ti  Ti35      1.0  0.90226  0.34567  0.84118  1.0000
  Ti  Ti36      1.0  0.05762  0.54435  0.40800  1.0000
  Ti  Ti37      1.0  0.04577  0.26272  0.68680  1.0000
  Ti  Ti38      1.0  0.39833  0.38126  0.63839  1.0000
  Ti  Ti39      1.0  0.42440  0.27343  0.01062  1.0000
  Ti  Ti40      1.0  0.73445  0.72450  0.43873  1.0000
  Ti  Ti41      1.0  0.45742  0.66888  0.40574  1.0000
  Ti  Ti42      1.0  0.76257  0.95508  0.67345  1.0000
  Ti  Ti43      1.0  0.34956  0.12663  0.90479  1.0000
  Ti  Ti44      1.0  0.81517  0.63407  0.24658  1.0000
  Ti  Ti45      1.0  0.38694  0.74843  0.87780  1.0000
  Ti  Ti46      1.0  0.18807  0.16526  0.95845  1.0000
  Ti  Ti47      1.0  0.91978  0.19318  0.90603  1.0000
  Ti  Ti48      1.0  0.47935  0.49262  0.42896  1.0000
  Ti  Ti49      1.0  0.64105  0.90886  0.62703  1.0000
  Ti  Ti50      1.0  0.65480  0.16193  0.61771  1.0000
  Ti  Ti51      1.0  0.48864  0.15422  0.41441  1.0000
  Ti  Ti52      1.0  0.48462  0.45900  0.68569  1.0000
  Ti  Ti53      1.0  0.16549  0.75214  0.07540  1.0000
  Ti  Ti54      1.0  0.40639  0.14592  0.59973  1.0000
  Ti  Ti55      1.0  0.06367  0.86861  0.58251  1.0000
  Ti  Ti56      1.0  0.27725  0.59659  0.36852  1.0000
  Ti  Ti57      1.0  0.25114  0.92955  0.93431  1.0000
  Ti  Ti58      1.0  0.33346  0.09824  0.99221  1.0000
  Ti  Ti59      1.0  0.98185  0.78965  0.94667  1.0000
  Ti  Ti60      1.0  0.21360  0.62734  0.56565  1.0000
  Ti  Ti61      1.0  0.36951  0.84315  0.01578  1.0000
  Ti  Ti62      1.0  0.34424  0.38636  0.38586  1.0000
  Ti  Ti63      1.0  0.18342  0.94659  0.50103  1.0000
  Ti  Ti64      1.0  0.82988  0.58717  0.59046  1.0000
  Ti  Ti65      1.0  0.00244  0.54664  0.87339  1.0000
  Ti  Ti66      1.0  0.43739  0.25290  0.72708  1.0000
  Ti  Ti67      1.0  0.86924  0.95890  0.45041  1.0000
  Ti  Ti68      1.0  0.25002  0.16497  0.66236  1.0000
  Ti  Ti69      1.0  0.81576  0.25118  0.29105  1.0000
  Ti  Ti70      1.0  0.65547  0.66654  0.13158  1.0000
  Ti  Ti71      1.0  0.71720  0.87626  0.01899  1.0000
  Ti  Ti72      1.0  0.92214  0.94711  0.04055  1.0000
  Ti  Ti73      1.0  0.14975  0.58909  0.87267  1.0000
  Ti  Ti74      1.0  0.23486  0.37862  0.71433  1.0000
  Ti  Ti75      1.0  0.00329  0.18799  0.25040  1.0000
  Ti  Ti76      1.0  0.97670  0.35341  0.36869  1.0000
  Ti  Ti77      1.0  0.69808  0.46630  0.26759  1.0000
  Ti  Ti78      1.0  0.00105  0.03869  0.13307  1.0000
  Ti  Ti79      1.0  0.27935  0.90447  0.32510  1.0000
  Ti  Ti80      1.0  0.71502  0.38033  0.54182  1.0000
  Ti  Ti81      1.0  0.69108  0.09475  0.08213  1.0000
  Ti  Ti82      1.0  0.69020  0.74451  0.74093  1.0000
  Ti  Ti83      1.0  0.84949  0.37958  0.77678  1.0000
  Ti  Ti84      1.0  0.08009  0.48230  0.43378  1.0000
  Ti  Ti85      1.0  0.09837  0.24488  0.75362  1.0000
  Ti  Ti86      1.0  0.40417  0.33022  0.75952  1.0000
  Ti  Ti87      1.0  0.46185  0.31453  0.00901  1.0000
  Ti  Ti88      1.0  0.76120  0.74366  0.39793  1.0000
  Ti  Ti89      1.0  0.48053  0.67284  0.53167  1.0000
  Ti  Ti90      1.0  0.75706  0.94372  0.77675  1.0000
  Ti  Ti91      1.0  0.37525  0.71807  0.78552  1.0000
  Ti  Ti92      1.0  0.86138  0.20652  0.57377  1.0000
  Ti  Ti93      1.0  0.81955  0.60066  0.14593  1.0000
  Ti  Ti94      1.0  0.42350  0.56678  0.43412  1.0000
  Ti  Ti95      1.0  0.21715  0.10119  0.95327  1.0000
  Ti  Ti96      1.0  0.88520  0.16260  0.95775  1.0000
  I   I1        1.0  0.87462  0.16447  0.04080  1.0000
  I   I2        1.0  0.45039  0.18701  0.44249  1.0000
  I   I3        1.0  0.60526  0.95574  0.59497  1.0000
  I   I4        1.0  0.20445  0.71421  0.06917  1.0000
  I   I5        1.0  0.47517  0.15125  0.74717  1.0000
  I   I6        1.0  0.39932  0.17575  0.68499  1.0000
  I   I7        1.0  0.29879  0.58781  0.44672  1.0000
  I   I8        1.0  0.27770  0.64109  0.36361  1.0000
  I   I9        1.0  0.25570  0.88427  0.94858  1.0000
  I   I10       1.0  0.98794  0.83368  0.92529  1.0000
  I   I11       1.0  0.35590  0.51153  0.93254  1.0000
  I   I12       1.0  0.22236  0.77532  0.94484  1.0000
  I   I13       1.0  0.35674  0.41896  0.41463  1.0000
  I   I14       1.0  0.19150  0.91390  0.43797  1.0000
  I   I15       1.0  0.41296  0.82585  0.20215  1.0000
  I   I16       1.0  0.95770  0.62791  0.93588  1.0000
  I   I17       1.0  0.39605  0.25330  0.70946  1.0000
  I   I18       1.0  0.80350  0.57537  0.53502  1.0000
  I   I19       1.0  0.23470  0.14189  0.73493  1.0000
  I   I20       1.0  0.37401  0.52696  0.04996  1.0000
  I   I21       1.0  0.77246  0.30206  0.27509  1.0000
  I   I22       1.0  0.74306  0.89883  0.99991  1.0000
  I   I23       1.0  0.68215  0.85901  0.03382  1.0000
  I   I24       1.0  0.62672  0.65172  0.17931  1.0000
  I   I25       1.0  0.25023  0.40853  0.74859  1.0000
  I   I26       1.0  0.06103  0.24763  0.23843  1.0000
  I   I27       1.0  0.13990  0.62374  0.80406  1.0000
  I   I28       1.0  0.73910  0.47188  0.26649  1.0000
  I   I29       1.0  0.02638  0.98565  0.10458  1.0000
  I   I30       1.0  0.01634  0.34332  0.32605  1.0000
  I   I31       1.0  0.75070  0.39503  0.54298  1.0000
  I   I32       1.0  0.73631  0.08842  0.10790  1.0000
  I   I33       1.0  0.30304  0.89509  0.40739  1.0000
  I   I34       1.0  0.83409  0.42800  0.74851  1.0000
  I   I35       1.0  0.05165  0.48054  0.49490  1.0000
  I   I36       1.0  0.63637  0.75664  0.58725  1.0000
  I   I37       1.0  0.02988  0.30049  0.62620  1.0000
  I   I38       1.0  0.47267  0.26907  0.02162  1.0000
  I   I39       1.0  0.08709  0.21610  0.70362  1.0000
  I   I40       1.0  0.45314  0.71565  0.56207  1.0000
  I   I41       1.0  0.80314  0.93427  0.74272  1.0000
  I   I42       1.0  0.76585  0.73315  0.48893  1.0000
  I   I43       1.0  0.36353  0.12631  0.98590  1.0000
  I   I44       1.0  0.82471  0.55827  0.14494  1.0000
  I   I45       1.0  0.34797  0.78967  0.85742  1.0000
  I   I46       1.0  0.19650  0.19716  0.99498  1.0000
  I   I47       1.0  0.91364  0.16310  0.85251  1.0000
  I   I48       1.0  0.43504  0.51817  0.46394  1.0000
  I   I49       1.0  0.65966  0.89320  0.55046  1.0000
  I   I50       1.0  0.51187  0.13569  0.33688  1.0000
  I   I51       1.0  0.45906  0.18113  0.19754  1.0000
  I   I52       1.0  0.46933  0.48118  0.86768  1.0000
  I   I53       1.0  0.25669  0.76907  0.04228  1.0000
  I   I54       1.0  0.36547  0.18376  0.57688  1.0000
  I   I55       1.0  0.04022  0.88333  0.74840  1.0000
  I   I56       1.0  0.23208  0.61617  0.33391  1.0000
  I   I57       1.0  0.20420  0.94357  0.88996  1.0000
  I   I58       1.0  0.00353  0.82985  0.81689  1.0000
  I   I59       1.0  0.93122  0.87067  0.83413  1.0000
  I   I60       1.0  0.19214  0.65348  0.49579  1.0000
  I   I61       1.0  0.33208  0.34668  0.36454  1.0000
  I   I62       1.0  0.29837  0.41597  0.40008  1.0000
  I   I63       1.0  0.08172  0.98010  0.51024  1.0000
  I   I64       1.0  0.93886  0.63180  0.77524  1.0000
  I   I65       1.0  0.04060  0.53435  0.91872  1.0000
  I   I66       1.0  0.46520  0.21450  0.77329  1.0000
  I   I67       1.0  0.85365  0.00501  0.44938  1.0000
  I   I68       1.0  0.18916  0.11396  0.60646  1.0000
  I   I69       1.0  0.77205  0.23861  0.15762  1.0000
  I   I70       1.0  0.70092  0.64231  0.14024  1.0000
  I   I71       1.0  0.71115  0.78463  0.00125  1.0000
  I   I72       1.0  0.94175  0.91134  0.98210  1.0000
  I   I73       1.0  0.08082  0.68024  0.86944  1.0000
  I   I74       1.0  0.01374  0.21338  0.31634  1.0000
  I   I75       1.0  0.02259  0.21990  0.21216  1.0000
  I   I76       1.0  0.67397  0.45212  0.33823  1.0000
  I   I77       1.0  0.66590  0.49372  0.21145  1.0000
  I   I78       1.0  0.08134  0.94026  0.19520  1.0000
  I   I79       1.0  0.26640  0.94770  0.28748  1.0000
  I   I80       1.0  0.68098  0.36219  0.54713  1.0000
  I   I81       1.0  0.73049  0.04037  0.02830  1.0000
  I   I82       1.0  0.65319  0.79295  0.72502  1.0000
  I   I83       1.0  0.87090  0.39814  0.84386  1.0000
  I   I84       1.0  0.03468  0.58975  0.37056  1.0000
  I   I85       1.0  0.09002  0.27110  0.67042  1.0000
  I   I86       1.0  0.36213  0.35533  0.80192  1.0000
  I   I87       1.0  0.41494  0.29411  0.08685  1.0000
  I   I88       1.0  0.69900  0.72487  0.38426  1.0000
  I   I89       1.0  0.44573  0.71835  0.40693  1.0000
  I   I90       1.0  0.75061  0.98806  0.73596  1.0000
  I   I91       1.0  0.41265  0.72788  0.75302  1.0000
  I   I92       1.0  0.84820  0.19020  0.50345  1.0000
  I   I93       1.0  0.77453  0.63249  0.15920  1.0000
  I   I94       1.0  0.47762  0.48415  0.34712  1.0000
  I   I95       1.0  0.21836  0.07502  0.02087  1.0000
  I   I96       1.0  0.90984  0.11811  0.94160  1.0000
  I   I97       1.0  0.02984  0.46020  0.21945  1.0000
  I   I98       1.0  0.66336  0.94134  0.59027  1.0000
  I   I99       1.0  0.49508  0.12161  0.23191  1.0000
  I   I100      1.0  0.46502  0.44131  0.77443  1.0000
  I   I101      1.0  0.50333  0.47822  0.75474  1.0000
  I   I102      1.0  0.19558  0.83183  0.02652  1.0000
  I   I103      1.0  0.98048  0.88437  0.71303  1.0000
  I   I104      1.0  0.09411  0.88354  0.55442  1.0000
  I   I105      1.0  0.22169  0.00028  0.83146  1.0000
  I   I106      1.0  0.19459  0.59487  0.59025  1.0000
  I   I107      1.0  0.93904  0.82654  0.93446  1.0000
  I   I108      1.0  0.24851  0.64915  0.54363  1.0000
  I   I109      1.0  0.33174  0.83816  0.02391  1.0000
  I   I110      1.0  0.36490  0.29954  0.45860  1.0000
  I   I111      1.0  0.14028  0.98398  0.44500  1.0000
  I   I112      1.0  0.86364  0.56692  0.52745  1.0000
  I   I113      1.0  0.00511  0.52124  0.80936  1.0000
  I   I114      1.0  0.13231  0.25421  0.27164  1.0000
  I   I115      1.0  0.95660  0.89641  0.41811  1.0000
  I   I116      1.0  0.82394  0.96465  0.44243  1.0000
  I   I117      1.0  0.26894  0.17239  0.58530  1.0000
  I   I118      1.0  0.66115  0.69439  0.07521  1.0000
  I   I119      1.0  0.58476  0.75412  0.21685  1.0000
  I   I120      1.0  0.95028  0.96197  0.07794  1.0000
  I   I121      1.0  0.18796  0.56098  0.82192  1.0000
  I   I122      1.0  0.25868  0.32465  0.61361  1.0000
  I   I123      1.0  0.06682  0.22581  0.35525  1.0000
  I   I124      1.0  0.92527  0.46190  0.37571  1.0000
  I   I125      1.0  0.62445  0.55027  0.30832  1.0000
  I   I126      1.0  0.00432  0.07854  0.14579  1.0000
  I   I127      1.0  0.29824  0.85301  0.33802  1.0000
  I   I128      1.0  0.64544  0.39753  0.69029  1.0000
  I   I129      1.0  0.68587  0.10754  0.99592  1.0000
  I   I130      1.0  0.04254  0.55620  0.48988  1.0000
  I   I131      1.0  0.64715  0.70405  0.66855  1.0000
  I   I132      1.0  0.81881  0.37261  0.81826  1.0000
  I   I133      1.0  0.43071  0.29809  0.94079  1.0000
  I   I134      1.0  0.37834  0.42976  0.63906  1.0000
  I   I135      1.0  0.38504  0.34725  0.66939  1.0000
  I   I136      1.0  0.72294  0.98254  0.61871  1.0000
  I   I137      1.0  0.74252  0.76199  0.32087  1.0000
  I   I138      1.0  0.48849  0.65450  0.34480  1.0000
  I   I139      1.0  0.38221  0.74618  0.95996  1.0000
  I   I140      1.0  0.82162  0.23111  0.61519  1.0000
  I   I141      1.0  0.80284  0.60080  0.26729  1.0000
  I   I142      1.0  0.37844  0.57891  0.45125  1.0000
  I   I143      1.0  0.25565  0.07010  0.90713  1.0000
  I   I144      1.0  0.94543  0.20974  0.93701  1.0000
  I   I145      1.0  0.66337  0.91133  0.69652  1.0000
  I   I146      1.0  0.44237  0.15423  0.33722  1.0000
  I   I147      1.0  0.01890  0.49507  0.08189  1.0000
  I   I148      1.0  0.52332  0.41602  0.68756  1.0000
  I   I149      1.0  0.16962  0.77314  0.99732  1.0000
  I   I150      1.0  0.45283  0.13176  0.63367  1.0000
  I   I151      1.0  0.08959  0.82603  0.62128  1.0000
  I   I152      1.0  0.27294  0.55399  0.37134  1.0000
  I   I153      1.0  0.25351  0.94688  0.74243  1.0000
  I   I154      1.0  0.32698  0.11041  0.07923  1.0000
  I   I155      1.0  0.35925  0.57315  0.94568  1.0000
  I   I156      1.0  0.15687  0.71274  0.57127  1.0000
  I   I157      1.0  0.35870  0.88987  0.18993  1.0000
  I   I158      1.0  0.21461  0.91528  0.56061  1.0000
  I   I159      1.0  0.36898  0.83294  0.11231  1.0000
  I   I160      1.0  0.83432  0.62776  0.58804  1.0000
  I   I161      1.0  0.08196  0.29336  0.16909  1.0000
  I   I162      1.0  0.78531  0.57756  0.73794  1.0000
  I   I163      1.0  0.87878  0.95798  0.36576  1.0000
  I   I164      1.0  0.21284  0.20838  0.66451  1.0000
  I   I165      1.0  0.85107  0.20426  0.31426  1.0000
  I   I166      1.0  0.58107  0.72414  0.11675  1.0000
  I   I167      1.0  0.74519  0.80244  0.92201  1.0000
  I   I168      1.0  0.23986  0.80759  0.53377  1.0000
  I   I169      1.0  0.28521  0.36072  0.68035  1.0000
  I   I170      1.0  0.26231  0.33519  0.76867  1.0000
  I   I171      1.0  0.09978  0.62004  0.88913  1.0000
  I   I172      1.0  0.86656  0.45662  0.33930  1.0000
  I   I173      1.0  0.00017  0.05237  0.04810  1.0000
  I   I174      1.0  0.98787  0.33547  0.44698  1.0000
  I   I175      1.0  0.63356  0.42350  0.56475  1.0000
  I   I176      1.0  0.67263  0.13473  0.12460  1.0000
  I   I177      1.0  0.32320  0.89164  0.28790  1.0000
  I   I178      1.0  0.64926  0.74259  0.76727  1.0000
  I   I179      1.0  0.93912  0.30085  0.82595  1.0000
  I   I180      1.0  0.12119  0.45567  0.47193  1.0000
  I   I181      1.0  0.01419  0.24652  0.67638  1.0000
  I   I182      1.0  0.41333  0.28488  0.79687  1.0000
  I   I183      1.0  0.37818  0.28430  0.98828  1.0000
  I   I184      1.0  0.70960  0.77342  0.43500  1.0000
  I   I185      1.0  0.49443  0.63648  0.46279  1.0000
  I   I186      1.0  0.76466  0.96030  0.84892  1.0000
  I   I187      1.0  0.89121  0.16920  0.61846  1.0000
  I   I188      1.0  0.83126  0.64346  0.15413  1.0000
  I   I189      1.0  0.40810  0.70059  0.86034  1.0000
  I   I190      1.0  0.15037  0.19407  0.90784  1.0000
  I   I191      1.0  0.65272  0.20465  0.61919  1.0000
  I   I192      1.0  0.47379  0.54139  0.44307  1.0000
  I   I193      1.0  0.63357  0.87168  0.64219  1.0000
  I   I194      1.0  0.69119  0.13328  0.57244  1.0000
  I   I195      1.0  0.05948  0.50198  0.18147  1.0000
  I   I196      1.0  0.43046  0.53305  0.79517  1.0000
  I   I197      1.0  0.31944  0.11873  0.84462  1.0000
  I   I198      1.0  0.39317  0.11718  0.64274  1.0000
  I   I199      1.0  0.06442  0.85157  0.50898  1.0000
  I   I200      1.0  0.30063  0.58887  0.29453  1.0000
  I   I201      1.0  0.18723  0.95787  0.77859  1.0000
  I   I202      1.0  0.01469  0.77392  0.87560  1.0000
  I   I203      1.0  0.74929  0.31014  0.15551  1.0000
  I   I204      1.0  0.21280  0.71551  0.59922  1.0000
  I   I205      1.0  0.34494  0.39324  0.30490  1.0000
  I   I206      1.0  0.22371  0.94342  0.45940  1.0000
  I   I207      1.0  0.37612  0.85992  0.93756  1.0000
  I   I208      1.0  0.93019  0.68360  0.83020  1.0000
  I   I209      1.0  0.12815  0.31176  0.24323  1.0000
  I   I210      1.0  0.76432  0.56471  0.64110  1.0000
  I   I211      1.0  0.88989  0.91069  0.47064  1.0000
  I   I212      1.0  0.16479  0.17474  0.67377  1.0000
  I   I213      1.0  0.81857  0.26255  0.37322  1.0000
  I   I214      1.0  0.64254  0.64607  0.06297  1.0000
  I   I215      1.0  0.66056  0.83914  0.92902  1.0000
  I   I216      1.0  0.31367  0.77226  0.55378  1.0000
  I   I217      1.0  0.33018  0.29290  0.71166  1.0000
  I   I218      1.0  0.99383  0.16196  0.30941  1.0000
  I   I219      1.0  0.17857  0.59032  0.93351  1.0000
  I   I220      1.0  0.63397  0.50470  0.39794  1.0000
  I   I221      1.0  0.99200  0.96770  0.21608  1.0000
  I   I222      1.0  0.93784  0.39157  0.38088  1.0000
  I   I223      1.0  0.69842  0.41816  0.60031  1.0000
  I   I224      1.0  0.64077  0.10022  0.07031  1.0000
  I   I225      1.0  0.36639  0.81663  0.32644  1.0000
  I   I226      1.0  0.73028  0.70120  0.73263  1.0000
  I   I227      1.0  0.93252  0.34911  0.89837  1.0000
  I   I228      1.0  0.08390  0.50353  0.35096  1.0000
  I   I229      1.0  0.13565  0.25385  0.76729  1.0000
  I   I230      1.0  0.43876  0.35983  0.60008  1.0000
  I   I231      1.0  0.49982  0.30650  0.96637  1.0000
  I   I232      1.0  0.76858  0.67469  0.44104  1.0000
  I   I233      1.0  0.41910  0.67835  0.35854  1.0000
  I   I234      1.0  0.76967  0.91381  0.64575  1.0000
  I   I235      1.0  0.31287  0.07251  0.97364  1.0000
  I   I236      1.0  0.85222  0.58664  0.20664  1.0000
  I   I237      1.0  0.42617  0.74945  0.86982  1.0000
  I   I238      1.0  0.15612  0.16541  0.01695  1.0000
  I   I239      1.0  0.93704  0.15594  0.97151  1.0000
  I   I240      1.0  0.41968  0.61366  0.43484  1.0000
  I   I241      1.0  0.62837  0.00887  0.64353  1.0000
  I   I242      1.0  0.48895  0.11937  0.46684  1.0000
  I   I243      1.0  0.08252  0.44348  0.10945  1.0000
  I   I244      1.0  0.43852  0.48894  0.70161  1.0000
  I   I245      1.0  0.13546  0.73787  0.04359  1.0000
  I   I246      1.0  0.40981  0.13392  0.78232  1.0000
  I   I247      1.0  0.01855  0.86624  0.61986  1.0000
  I   I248      1.0  0.17415  0.61332  0.38300  1.0000
  I   I249      1.0  0.22336  0.97318  0.96685  1.0000
  I   I250      1.0  0.96774  0.75554  0.94454  1.0000
  I   I251      1.0  0.30153  0.57287  0.03339  1.0000
  I   I252      1.0  0.25010  0.58188  0.55196  1.0000
  I   I253      1.0  0.40041  0.31579  0.34702  1.0000
  I   I254      1.0  0.14615  0.93827  0.55604  1.0000
  I   I255      1.0  0.42841  0.86930  0.12823  1.0000
  I   I256      1.0  0.99825  0.58511  0.82450  1.0000
  I   I257      1.0  0.08664  0.29466  0.33335  1.0000
  I   I258      1.0  0.83685  0.58398  0.68821  1.0000
  I   I259      1.0  0.96612  0.92058  0.54244  1.0000
  I   I260      1.0  0.29094  0.14358  0.70522  1.0000
  I   I261      1.0  0.72638  0.26782  0.23211  1.0000
  I   I262      1.0  0.57007  0.70979  0.26337  1.0000
  I   I263      1.0  0.70127  0.87280  0.93250  1.0000
  I   I264      1.0  0.27630  0.73400  0.58936  1.0000
  I   I265      1.0  0.19789  0.38221  0.76594  1.0000
  I   I266      1.0  0.96217  0.20757  0.20540  1.0000
  I   I267      1.0  0.07775  0.61804  0.76763  1.0000
  I   I268      1.0  0.60622  0.49782  0.31062  1.0000
  I   I269      1.0  0.95863  0.04639  0.13587  1.0000
  I   I270      1.0  0.95356  0.33450  0.32787  1.0000
  I   I271      1.0  0.75352  0.33180  0.54197  1.0000
  I   I272      1.0  0.66680  0.07436  0.94128  1.0000
  I   I273      1.0  0.36778  0.86885  0.41984  1.0000
  I   I274      1.0  0.69007  0.73994  0.64913  1.0000
  I   I275      1.0  0.87879  0.32622  0.87683  1.0000
  I   I276      1.0  0.09994  0.52196  0.43226  1.0000
  I   I277      1.0  0.05106  0.24111  0.59889  1.0000
  I   I278      1.0  0.42544  0.36732  0.71683  1.0000
  I   I279      1.0  0.43260  0.23129  0.02006  1.0000
  I   I280      1.0  0.80064  0.70275  0.38016  1.0000
  I   I281      1.0  0.44116  0.66940  0.48492  1.0000
  I   I282      1.0  0.78213  0.97600  0.61551  1.0000
  I   I283      1.0  0.29697  0.14483  0.95683  1.0000
  I   I284      1.0  0.77583  0.66788  0.28291  1.0000
  I   I285      1.0  0.34213  0.72759  0.85210  1.0000
  I   I286      1.0  0.20444  0.13926  0.87947  1.0000
  I   I287      1.0  0.84852  0.17478  0.91016  1.0000
  I   I288      1.0  0.48540  0.45209  0.46033  1.0000
  I   I289      1.0  0.58136  0.01407  0.53330  1.0000
  I   I290      1.0  0.66153  0.14389  0.69604  1.0000
  I   I291      1.0  0.46675  0.20069  0.32443  1.0000
  I   I292      1.0  0.47748  0.43586  0.62133  1.0000
  I   I293      1.0  0.15812  0.74144  0.15833  1.0000
  I   I294      1.0  0.46229  0.09430  0.72512  1.0000
  I   I295      1.0  0.98296  0.94747  0.69838  1.0000
  I   I296      1.0  0.22482  0.55329  0.43267  1.0000
  I   I297      1.0  0.27014  0.92045  0.85200  1.0000
  I   I298      1.0  0.37808  0.05679  0.97986  1.0000
  I   I299      1.0  0.95324  0.79807  0.81769  1.0000
  I   I300      1.0  0.20559  0.64146  0.64800  1.0000
  I   I301      1.0  0.37910  0.87943  0.05131  1.0000
  I   I302      1.0  0.33086  0.37240  0.47132  1.0000
  I   I303      1.0  0.09663  0.02954  0.54686  1.0000
  I   I304      1.0  0.83712  0.51925  0.65510  1.0000
  I   I305      1.0  0.99831  0.64658  0.84727  1.0000
  I   I306      1.0  0.42766  0.33566  0.82408  1.0000
  I   I307      1.0  0.94525  0.86925  0.54722  1.0000
  I   I308      1.0  0.18897  0.11259  0.72537  1.0000
  I   I309      1.0  0.82264  0.26740  0.20873  1.0000
  I   I310      1.0  0.64573  0.70318  0.20525  1.0000
  I   I311      1.0  0.70536  0.90480  0.08713  1.0000
  I   I312      1.0  0.88068  0.98786  0.02605  1.0000
  I   I313      1.0  0.12858  0.56264  0.85564  1.0000
  I   I314      1.0  0.27055  0.28353  0.71051  1.0000
  I   I315      1.0  0.08920  0.16923  0.26497  1.0000
  I   I316      1.0  0.90340  0.47038  0.25653  1.0000
  I   I317      1.0  0.69211  0.50302  0.32691  1.0000
  I   I318      1.0  0.00849  0.01848  0.21260  1.0000
  I   I319      1.0  0.34744  0.81298  0.43838  1.0000
  I   I320      1.0  0.70604  0.39564  0.46167  1.0000
  I   I321      1.0  0.66785  0.03175  0.03438  1.0000
  I   I322      1.0  0.59457  0.77745  0.69172  1.0000
  I   I323      1.0  0.89145  0.34070  0.74941  1.0000
  I   I324      1.0  0.06863  0.44814  0.40547  1.0000
  I   I325      1.0  0.09568  0.22883  0.82712  1.0000
  I   I326      1.0  0.44429  0.29519  0.72018  1.0000
  I   I327      1.0  0.47530  0.32537  0.08556  1.0000
  I   I328      1.0  0.71012  0.72045  0.50609  1.0000
  I   I329      1.0  0.51815  0.67963  0.52472  1.0000
  I   I330      1.0  0.71866  0.95138  0.71437  1.0000
  I   I331      1.0  0.34651  0.74127  0.71976  1.0000
  I   I332      1.0  0.34094  0.16948  0.86797  1.0000
  I   I333      1.0  0.83288  0.60533  0.06509  1.0000
  I   I334      1.0  0.41579  0.57718  0.34387  1.0000
  I   I335      1.0  0.23311  0.12348  0.99603  1.0000
  I   I336      1.0  0.92104  0.21348  0.82154  1.0000
  I   I337      1.0  0.64923  0.99348  0.51219  1.0000
  I   I338      1.0  0.62878  0.13776  0.59599  1.0000
  I   I339      1.0  0.51558  0.17520  0.44522  1.0000
  I   I340      1.0  0.50330  0.47742  0.63310  1.0000
  I   I341      1.0  0.19771  0.77500  0.10449  1.0000
  I   I342      1.0  0.42524  0.12661  0.52036  1.0000
  I   I343      1.0  0.04255  0.91313  0.63301  1.0000
  I   I344      1.0  0.21807  0.55333  0.29593  1.0000
  I   I345      1.0  0.29117  0.92191  0.97090  1.0000
  I   I346      1.0  0.39230  0.10033  0.88122  1.0000
  I   I347      1.0  0.99540  0.78107  0.03457  1.0000
  I   I348      1.0  0.19867  0.70435  0.46964  1.0000
  I   I349      1.0  0.40138  0.79734  0.00153  1.0000
  I   I350      1.0  0.40360  0.34506  0.45231  1.0000
  I   I351      1.0  0.16748  0.98087  0.57142  1.0000
  I   I352      1.0  0.77973  0.61130  0.61685  1.0000
  I   I353      1.0  0.96212  0.55361  0.91873  1.0000
  I   I354      1.0  0.46450  0.23958  0.65362  1.0000
  I   I355      1.0  0.89452  0.95732  0.52898  1.0000
  I   I356      1.0  0.23849  0.13945  0.60580  1.0000
  I   I357      1.0  0.78602  0.23118  0.27312  1.0000
  I   I358      1.0  0.27282  0.78674  0.67739  1.0000
  I   I359      1.0  0.75044  0.83078  0.02570  1.0000
  I   I360      1.0  0.91469  0.92729  0.11020  1.0000
  I   I361      1.0  0.08646  0.67746  0.73689  1.0000
  I   I362      1.0  0.20160  0.40919  0.65476  1.0000
  I   I363      1.0  0.03615  0.15508  0.20061  1.0000
  I   I364      1.0  0.94652  0.40161  0.27246  1.0000
  I   I365      1.0  0.71480  0.43160  0.20237  1.0000
  I   I366      1.0  0.04763  0.91759  0.15087  1.0000
  I   I367      1.0  0.23832  0.91247  0.29364  1.0000
  I   I368      1.0  0.69942  0.35055  0.66388  1.0000
  I   I369      1.0  0.69418  0.05899  0.13302  1.0000
  I   I370      1.0  0.70933  0.75993  0.80340  1.0000
  I   I371      1.0  0.82768  0.37614  0.70374  1.0000
  I   I372      1.0  0.02627  0.52384  0.38675  1.0000
  I   I373      1.0  0.04358  0.27331  0.76420  1.0000
  I   I374      1.0  0.37079  0.38751  0.57056  1.0000
  I   I375      1.0  0.42712  0.36006  0.99002  1.0000
  I   I376      1.0  0.77620  0.78110  0.40565  1.0000
  I   I377      1.0  0.48065  0.64482  0.59535  1.0000
  I   I378      1.0  0.75763  0.90210  0.79985  1.0000
  I   I379      1.0  0.40232  0.67840  0.74138  1.0000
  I   I380      1.0  0.89313  0.22180  0.54409  1.0000
  I   I381      1.0  0.84570  0.64120  0.28555  1.0000
  I   I382      1.0  0.52509  0.47908  0.43618  1.0000
  I   I383      1.0  0.18690  0.09077  0.90196  1.0000
  I   I384      1.0  0.87289  0.21867  0.93778  1.0000
