data_image0
_chemical_formula_structural       Ti96I384
_chemical_formula_sum              "Ti96 I384"
_cell_length_a       65.627
_cell_length_b       65.2923
_cell_length_c       31.9372
_cell_angle_alpha    88.7757
_cell_angle_beta     88.7757
_cell_angle_gamma    62.1586

_space_group_name_H-M_alt    "P 1"
_space_group_IT_number       1

loop_
  _space_group_symop_operation_xyz
  'x, y, z'

loop_
  _atom_site_type_symbol
  _atom_site_label
  _atom_site_symmetry_multiplicity
  _atom_site_fract_x
  _atom_site_fract_y
  _atom_site_fract_z
  _atom_site_occupancy
  Ti  Ti1       1.0  0.57779  0.83864  0.57858  1.0000
  Ti  Ti2       1.0  0.43434  0.10245  0.30296  1.0000
  Ti  Ti3       1.0  0.90102  0.73540  0.29766  1.0000
  Ti  Ti4       1.0  0.05406  0.97842  0.96849  1.0000
  Ti  Ti5       1.0  0.86538  0.80111  0.68611  1.0000
  Ti  Ti6       1.0  0.45741  0.25572  0.72816  1.0000
  Ti  Ti7       1.0  0.83662  0.07655  0.25164  1.0000
  Ti  Ti8       1.0  0.48808  0.18164  0.17197  1.0000
  Ti  Ti9       1.0  0.30028  0.78683  0.73300  1.0000
  Ti  Ti10      1.0  0.68543  0.92550  0.43391  1.0000
  Ti  Ti11      1.0  0.02628  0.50546  0.68383  1.0000
  Ti  Ti12      1.0  0.12512  0.57727  0.39581  1.0000
  Ti  Ti13      1.0  0.21677  0.16549  0.55711  1.0000
  Ti  Ti14      1.0  0.09754  0.05523  0.38211  1.0000
  Ti  Ti15      1.0  0.59387  0.23831  0.75418  1.0000
  Ti  Ti16      1.0  0.67411  0.88159  0.75016  1.0000
  Ti  Ti17      1.0  0.34298  0.09864  0.58258  1.0000
  Ti  Ti18      1.0  0.08712  0.65761  0.04869  1.0000
  Ti  Ti19      1.0  0.44890  0.83380  0.30696  1.0000
  Ti  Ti20      1.0  0.43059  0.96506  0.60476  1.0000
  Ti  Ti21      1.0  0.19845  0.01517  0.94320  1.0000
  Ti  Ti22      1.0  0.66593  0.40474  0.46879  1.0000
  Ti  Ti23      1.0  0.51977  0.08776  0.52903  1.0000
  Ti  Ti24      1.0  0.00609  0.91193  0.38352  1.0000
  Ti  Ti25      1.0  0.66107  0.75856  0.03763  1.0000
  Ti  Ti26      1.0  0.50210  0.88756  0.06227  1.0000
  Ti  Ti27      1.0  0.00270  0.79809  0.29764  1.0000
  Ti  Ti28      1.0  0.67720  0.33118  0.02842  1.0000
  Ti  Ti29      1.0  0.80341  0.98479  0.54796  1.0000
  Ti  Ti30      1.0  0.83267  0.24223  0.41294  1.0000
  Ti  Ti31      1.0  0.76161  0.24631  0.74065  1.0000
  Ti  Ti32      1.0  0.72388  0.27286  0.20760  1.0000
  Ti  Ti33      1.0  0.36025  0.86349  0.94879  1.0000
  Ti  Ti34      1.0  0.52781  0.49138  0.97370  1.0000
  Ti  Ti35      1.0  0.76163  0.54541  0.46398  1.0000
  Ti  Ti36      1.0  0.84363  0.58237  0.38687  1.0000
  Ti  Ti37      1.0  0.00183  0.40196  0.30402  1.0000
  Ti  Ti38      1.0  0.53927  0.29509  0.99450  1.0000
  Ti  Ti39      1.0  0.00580  0.86687  0.77756  1.0000
  Ti  Ti40      1.0  0.13517  0.11324  0.28782  1.0000
  Ti  Ti41      1.0  0.54018  0.66933  0.02524  1.0000
  Ti  Ti42      1.0  0.89386  0.32994  0.09863  1.0000
  Ti  Ti43      1.0  0.65930  0.15184  0.44558  1.0000
  Ti  Ti44      1.0  0.81734  0.54119  0.01058  1.0000
  Ti  Ti45      1.0  0.36911  0.61485  0.75967  1.0000
  Ti  Ti46      1.0  0.32388  0.47108  0.37725  1.0000
  Ti  Ti47      1.0  0.12340  0.53820  0.07371  1.0000
  Ti  Ti48      1.0  0.49067  0.67496  0.58547  1.0000
  Ti  Ti49      1.0  0.59969  0.77662  0.71185  1.0000
  Ti  Ti50      1.0  0.04848  0.17164  0.11276  1.0000
  Ti  Ti51      1.0  0.45318  0.07571  0.21135  1.0000
  Ti  Ti52      1.0  0.08129  0.00507  0.87034  1.0000
  Ti  Ti53      1.0  0.24692  0.57847  0.57077  1.0000
  Ti  Ti54      1.0  0.51359  0.18742  0.69811  1.0000
  Ti  Ti55      1.0  0.84079  0.03875  0.13700  1.0000
  Ti  Ti56      1.0  0.42604  0.22092  0.15873  1.0000
  Ti  Ti57      1.0  0.31252  0.77076  0.59055  1.0000
  Ti  Ti58      1.0  0.68285  0.18402  0.48211  1.0000
  Ti  Ti59      1.0  0.53233  0.03806  0.93476  1.0000
  Ti  Ti60      1.0  0.10323  0.64381  0.47160  1.0000
  Ti  Ti61      1.0  0.65231  0.24629  0.77426  1.0000
  Ti  Ti62      1.0  0.17722  0.15649  0.50846  1.0000
  Ti  Ti63      1.0  0.12911  0.01911  0.48347  1.0000
  Ti  Ti64      1.0  0.13864  0.66983  0.07750  1.0000
  Ti  Ti65      1.0  0.11873  0.32058  0.73507  1.0000
  Ti  Ti66      1.0  0.47098  0.32482  0.19706  1.0000
  Ti  Ti67      1.0  0.51877  0.79169  0.36807  1.0000
  Ti  Ti68      1.0  0.09565  0.31604  0.04628  1.0000
  Ti  Ti69      1.0  0.19444  0.07304  0.93105  1.0000
  Ti  Ti70      1.0  0.61408  0.47520  0.42433  1.0000
  Ti  Ti71      1.0  0.58162  0.06939  0.58783  1.0000
  Ti  Ti72      1.0  0.20488  0.92404  0.24006  1.0000
  Ti  Ti73      1.0  0.97216  0.86069  0.31208  1.0000
  Ti  Ti74      1.0  0.61752  0.80829  0.99107  1.0000
  Ti  Ti75      1.0  0.46900  0.92598  0.00839  1.0000
  Ti  Ti76      1.0  0.77328  0.27872  0.43255  1.0000
  Ti  Ti77      1.0  0.70484  0.36345  0.03228  1.0000
  Ti  Ti78      1.0  0.84922  0.99958  0.49754  1.0000
  Ti  Ti79      1.0  0.52257  0.41405  0.65563  1.0000
  Ti  Ti80      1.0  0.83101  0.11425  0.60312  1.0000
  Ti  Ti81      1.0  0.66956  0.29115  0.27859  1.0000
  Ti  Ti82      1.0  0.55584  0.52945  0.91292  1.0000
  Ti  Ti83      1.0  0.73378  0.54575  0.56637  1.0000
  Ti  Ti84      1.0  0.84781  0.57916  0.29338  1.0000
  Ti  Ti85      1.0  0.94112  0.44379  0.25570  1.0000
  Ti  Ti86      1.0  0.49202  0.31634  0.08977  1.0000
  Ti  Ti87      1.0  0.96073  0.87599  0.68568  1.0000
  Ti  Ti88      1.0  0.56918  0.91710  0.24912  1.0000
  Ti  Ti89      1.0  0.61555  0.62237  0.96193  1.0000
  Ti  Ti90      1.0  0.91009  0.29170  0.99273  1.0000
  Ti  Ti91      1.0  0.33962  0.67454  0.75752  1.0000
  Ti  Ti92      1.0  0.79535  0.05549  0.80333  1.0000
  Ti  Ti93      1.0  0.78647  0.60032  0.99934  1.0000
  Ti  Ti94      1.0  0.55173  0.62319  0.51968  1.0000
  Ti  Ti95      1.0  0.31470  0.52275  0.30419  1.0000
  Ti  Ti96      1.0  0.06426  0.52375  0.01855  1.0000
  I   I1        1.0  0.02916  0.52154  0.04942  1.0000
  I   I2        1.0  0.47407  0.09377  0.27247  1.0000
  I   I3        1.0  0.61557  0.73915  0.76062  1.0000
  I   I4        1.0  0.26714  0.54641  0.62207  1.0000
  I   I5        1.0  0.48069  0.20430  0.75336  1.0000
  I   I6        1.0  0.52487  0.14379  0.73835  1.0000
  I   I7        1.0  0.52162  0.15369  0.12313  1.0000
  I   I8        1.0  0.42253  0.23889  0.23937  1.0000
  I   I9        1.0  0.33219  0.77356  0.78656  1.0000
  I   I10       1.0  0.71514  0.87803  0.43231  1.0000
  I   I11       1.0  0.02721  0.46673  0.66001  1.0000
  I   I12       1.0  0.83295  0.83990  0.71901  1.0000
  I   I13       1.0  0.15306  0.17910  0.44566  1.0000
  I   I14       1.0  0.10841  0.98714  0.47687  1.0000
  I   I15       1.0  0.60873  0.19687  0.72532  1.0000
  I   I16       1.0  0.64277  0.86645  0.74904  1.0000
  I   I17       1.0  0.50146  0.32582  0.24784  1.0000
  I   I18       1.0  0.12188  0.64300  0.11559  1.0000
  I   I19       1.0  0.43773  0.00006  0.56716  1.0000
  I   I20       1.0  0.01261  0.54060  0.62386  1.0000
  I   I21       1.0  0.20465  0.00012  0.85457  1.0000
  I   I22       1.0  0.53111  0.07573  0.60796  1.0000
  I   I23       1.0  0.52240  0.09717  0.44719  1.0000
  I   I24       1.0  0.56953  0.49078  0.41698  1.0000
  I   I25       1.0  0.60208  0.84551  0.04547  1.0000
  I   I26       1.0  0.46174  0.92114  0.09847  1.0000
  I   I27       1.0  0.00962  0.76534  0.24247  1.0000
  I   I28       1.0  0.74506  0.34552  0.97993  1.0000
  I   I29       1.0  0.82813  0.04251  0.49923  1.0000
  I   I30       1.0  0.76173  0.27125  0.35511  1.0000
  I   I31       1.0  0.79750  0.11902  0.65417  1.0000
  I   I32       1.0  0.65531  0.32135  0.34401  1.0000
  I   I33       1.0  0.53950  0.39292  0.58320  1.0000
  I   I34       1.0  0.76727  0.55346  0.60211  1.0000
  I   I35       1.0  0.79601  0.59457  0.38411  1.0000
  I   I36       1.0  0.48985  0.52948  0.99188  1.0000
  I   I37       1.0  0.90624  0.46684  0.30138  1.0000
  I   I38       1.0  0.95121  0.89522  0.76057  1.0000
  I   I39       1.0  0.98609  0.42488  0.22833  1.0000
  I   I40       1.0  0.65625  0.62076  0.98727  1.0000
  I   I41       1.0  0.89469  0.28531  0.91793  1.0000
  I   I42       1.0  0.16428  0.12450  0.25167  1.0000
  I   I43       1.0  0.66284  0.22907  0.49041  1.0000
  I   I44       1.0  0.78543  0.61937  0.92917  1.0000
  I   I45       1.0  0.36506  0.69470  0.76122  1.0000
  I   I46       1.0  0.34902  0.47606  0.30785  1.0000
  I   I47       1.0  0.10946  0.57759  0.11482  1.0000
  I   I48       1.0  0.52880  0.59858  0.52393  1.0000
  I   I49       1.0  0.59976  0.80229  0.78486  1.0000
  I   I50       1.0  0.43885  0.12198  0.37094  1.0000
  I   I51       1.0  0.40694  0.10269  0.23710  1.0000
  I   I52       1.0  0.09217  0.96222  0.92811  1.0000
  I   I53       1.0  0.26933  0.60141  0.58224  1.0000
  I   I54       1.0  0.55397  0.18814  0.69191  1.0000
  I   I55       1.0  0.82606  0.08859  0.15841  1.0000
  I   I56       1.0  0.46932  0.22902  0.12569  1.0000
  I   I57       1.0  0.27270  0.77449  0.57319  1.0000
  I   I58       1.0  0.69097  0.95610  0.47456  1.0000
  I   I59       1.0  0.54486  0.03289  0.01145  1.0000
  I   I60       1.0  0.10041  0.56548  0.43857  1.0000
  I   I61       1.0  0.20439  0.11818  0.47486  1.0000
  I   I62       1.0  0.23881  0.15996  0.48673  1.0000
  I   I63       1.0  0.14112  0.04730  0.43145  1.0000
  I   I64       1.0  0.65711  0.91512  0.80546  1.0000
  I   I65       1.0  0.10548  0.33458  0.66242  1.0000
  I   I66       1.0  0.46600  0.29769  0.25329  1.0000
  I   I67       1.0  0.42433  0.82244  0.25374  1.0000
  I   I68       1.0  0.40597  0.98974  0.66848  1.0000
  I   I69       1.0  0.15804  0.11628  0.94313  1.0000
  I   I70       1.0  0.66556  0.36788  0.48883  1.0000
  I   I71       1.0  0.50650  0.13262  0.54137  1.0000
  I   I72       1.0  0.23041  0.94462  0.24817  1.0000
  I   I73       1.0  0.00235  0.83653  0.24399  1.0000
  I   I74       1.0  0.48031  0.87527  0.00275  1.0000
  I   I75       1.0  0.47051  0.92844  0.92468  1.0000
  I   I76       1.0  0.63366  0.35563  0.01200  1.0000
  I   I77       1.0  0.72785  0.34892  0.10539  1.0000
  I   I78       1.0  0.89119  0.97896  0.53284  1.0000
  I   I79       1.0  0.39188  0.84892  0.89173  1.0000
  I   I80       1.0  0.72600  0.27419  0.78637  1.0000
  I   I81       1.0  0.68021  0.31471  0.21581  1.0000
  I   I82       1.0  0.52026  0.56983  0.93540  1.0000
  I   I83       1.0  0.73508  0.59122  0.46029  1.0000
  I   I84       1.0  0.85655  0.56257  0.45800  1.0000
  I   I85       1.0  0.95839  0.39703  0.30299  1.0000
  I   I86       1.0  0.53610  0.31438  0.06886  1.0000
  I   I87       1.0  0.99481  0.89192  0.84945  1.0000
  I   I88       1.0  0.09162  0.14068  0.27127  1.0000
  I   I89       1.0  0.56336  0.63880  0.95315  1.0000
  I   I90       1.0  0.95212  0.25752  0.97621  1.0000
  I   I91       1.0  0.29884  0.71030  0.77821  1.0000
  I   I92       1.0  0.81568  0.01556  0.76715  1.0000
  I   I93       1.0  0.83415  0.57042  0.97233  1.0000
  I   I94       1.0  0.44869  0.68823  0.58014  1.0000
  I   I95       1.0  0.29358  0.56581  0.34246  1.0000
  I   I96       1.0  0.06045  0.53301  0.94138  1.0000
  I   I97       1.0  0.91277  0.69106  0.32194  1.0000
  I   I98       1.0  0.57650  0.82780  0.66184  1.0000
  I   I99       1.0  0.40569  0.09291  0.34501  1.0000
  I   I100      1.0  0.06651  0.95496  0.03773  1.0000
  I   I101      1.0  0.09644  0.01841  0.93269  1.0000
  I   I102      1.0  0.89769  0.78563  0.74230  1.0000
  I   I103      1.0  0.81825  0.01868  0.17589  1.0000
  I   I104      1.0  0.83956  0.11296  0.27213  1.0000
  I   I105      1.0  0.32820  0.79217  0.65551  1.0000
  I   I106      1.0  0.08209  0.69085  0.47140  1.0000
  I   I107      1.0  0.67624  0.93306  0.35567  1.0000
  I   I108      1.0  0.14520  0.59859  0.44887  1.0000
  I   I109      1.0  0.69409  0.22683  0.80510  1.0000
  I   I110      1.0  0.17365  0.20162  0.53138  1.0000
  I   I111      1.0  0.12972  0.01245  0.35712  1.0000
  I   I112      1.0  0.04711  0.66102  0.01821  1.0000
  I   I113      1.0  0.10266  0.35934  0.77815  1.0000
  I   I114      1.0  0.38520  0.06646  0.60978  1.0000
  I   I115      1.0  0.48208  0.83519  0.36523  1.0000
  I   I116      1.0  0.55075  0.78553  0.30261  1.0000
  I   I117      1.0  0.08428  0.30388  0.11547  1.0000
  I   I118      1.0  0.60751  0.51396  0.45665  1.0000
  I   I119      1.0  0.63218  0.46606  0.34728  1.0000
  I   I120      1.0  0.18076  0.93414  0.31003  1.0000
  I   I121      1.0  0.95513  0.82678  0.28458  1.0000
  I   I122      1.0  0.64624  0.73087  0.07257  1.0000
  I   I123      1.0  0.53343  0.88775  0.11385  1.0000
  I   I124      1.0  0.73293  0.30385  0.46549  1.0000
  I   I125      1.0  0.69215  0.29292  0.97749  1.0000
  I   I126      1.0  0.84009  0.98590  0.58727  1.0000
  I   I127      1.0  0.32837  0.85018  0.92598  1.0000
  I   I128      1.0  0.81177  0.11637  0.53328  1.0000
  I   I129      1.0  0.65111  0.27026  0.32490  1.0000
  I   I130      1.0  0.86696  0.59243  0.23286  1.0000
  I   I131      1.0  0.57509  0.48730  0.95403  1.0000
  I   I132      1.0  0.71315  0.58881  0.57993  1.0000
  I   I133      1.0  0.00018  0.83349  0.80845  1.0000
  I   I134      1.0  0.51135  0.30365  0.92256  1.0000
  I   I135      1.0  0.46773  0.34381  0.02691  1.0000
  I   I136      1.0  0.85509  0.34142  0.13864  1.0000
  I   I137      1.0  0.53306  0.91254  0.25498  1.0000
  I   I138      1.0  0.59179  0.65589  0.01555  1.0000
  I   I139      1.0  0.38326  0.59399  0.68135  1.0000
  I   I140      1.0  0.76279  0.07833  0.75275  1.0000
  I   I141      1.0  0.81290  0.61638  0.04558  1.0000
  I   I142      1.0  0.50790  0.63262  0.63118  1.0000
  I   I143      1.0  0.32622  0.43433  0.35703  1.0000
  I   I144      1.0  0.08705  0.52519  0.09763  1.0000
  I   I145      1.0  0.57599  0.80567  0.53933  1.0000
  I   I146      1.0  0.46782  0.04794  0.31329  1.0000
  I   I147      1.0  0.88504  0.73445  0.21956  1.0000
  I   I148      1.0  0.06258  0.04758  0.84533  1.0000
  I   I149      1.0  0.88832  0.79719  0.61718  1.0000
  I   I150      1.0  0.49367  0.23910  0.66537  1.0000
  I   I151      1.0  0.87337  0.99486  0.12285  1.0000
  I   I152      1.0  0.43691  0.19283  0.09611  1.0000
  I   I153      1.0  0.33867  0.78794  0.54452  1.0000
  I   I154      1.0  0.70494  0.18881  0.41842  1.0000
  I   I155      1.0  0.98454  0.52784  0.71447  1.0000
  I   I156      1.0  0.07210  0.64063  0.51907  1.0000
  I   I157      1.0  0.57284  0.25924  0.68690  1.0000
  I   I158      1.0  0.13618  0.03573  0.54934  1.0000
  I   I159      1.0  0.64473  0.27494  0.83468  1.0000
  I   I160      1.0  0.06170  0.67595  0.11739  1.0000
  I   I161      1.0  0.32318  0.11930  0.65177  1.0000
  I   I162      1.0  0.15444  0.66925  0.15524  1.0000
  I   I163      1.0  0.53573  0.80017  0.43005  1.0000
  I   I164      1.0  0.09800  0.29326  0.98151  1.0000
  I   I165      1.0  0.18137  0.05428  0.99929  1.0000
  I   I166      1.0  0.66106  0.45441  0.44530  1.0000
  I   I167      1.0  0.56706  0.05119  0.52571  1.0000
  I   I168      1.0  0.01171  0.87510  0.42462  1.0000
  I   I169      1.0  0.59268  0.79611  0.04128  1.0000
  I   I170      1.0  0.69790  0.72530  0.00734  1.0000
  I   I171      1.0  0.04123  0.79041  0.33195  1.0000
  I   I172      1.0  0.79090  0.23232  0.45201  1.0000
  I   I173      1.0  0.83467  0.95700  0.48901  1.0000
  I   I174      1.0  0.86175  0.25926  0.42217  1.0000
  I   I175      1.0  0.75605  0.27361  0.67303  1.0000
  I   I176      1.0  0.73583  0.29522  0.15038  1.0000
  I   I177      1.0  0.53061  0.44005  0.70860  1.0000
  I   I178      1.0  0.55947  0.52528  0.83337  1.0000
  I   I179      1.0  0.71349  0.54485  0.49004  1.0000
  I   I180      1.0  0.82091  0.57093  0.23860  1.0000
  I   I181      1.0  0.94523  0.47793  0.22304  1.0000
  I   I182      1.0  0.48225  0.35750  0.13293  1.0000
  I   I183      1.0  0.91698  0.89413  0.67985  1.0000
  I   I184      1.0  0.54790  0.95988  0.26579  1.0000
  I   I185      1.0  0.53637  0.66537  0.10576  1.0000
  I   I186      1.0  0.86829  0.33070  0.02766  1.0000
  I   I187      1.0  0.77965  0.05257  0.88212  1.0000
  I   I188      1.0  0.85377  0.50511  0.02939  1.0000
  I   I189      1.0  0.34326  0.67438  0.67554  1.0000
  I   I190      1.0  0.34939  0.53021  0.29547  1.0000
  I   I191      1.0  0.04614  0.19548  0.18262  1.0000
  I   I192      1.0  0.50276  0.66413  0.50756  1.0000
  I   I193      1.0  0.61577  0.83937  0.57264  1.0000
  I   I194      1.0  0.03772  0.14216  0.14436  1.0000
  I   I195      1.0  0.93553  0.74303  0.28797  1.0000
  I   I196      1.0  0.02317  0.96486  0.94319  1.0000
  I   I197      1.0  0.69459  0.14344  0.40109  1.0000
  I   I198      1.0  0.42825  0.24774  0.77342  1.0000
  I   I199      1.0  0.82721  0.04829  0.06212  1.0000
  I   I200      1.0  0.40251  0.25859  0.10776  1.0000
  I   I201      1.0  0.27946  0.83175  0.74056  1.0000
  I   I202      1.0  0.56411  0.03486  0.88097  1.0000
  I   I203      1.0  0.15934  0.05150  0.91323  1.0000
  I   I204      1.0  0.16045  0.53649  0.41565  1.0000
  I   I205      1.0  0.14727  0.14507  0.53694  1.0000
  I   I206      1.0  0.17352  0.98716  0.45615  1.0000
  I   I207      1.0  0.56176  0.25005  0.80949  1.0000
  I   I208      1.0  0.71650  0.87458  0.76204  1.0000
  I   I209      1.0  0.32304  0.07224  0.56475  1.0000
  I   I210      1.0  0.17251  0.63806  0.04033  1.0000
  I   I211      1.0  0.48313  0.78898  0.31658  1.0000
  I   I212      1.0  0.44577  0.92132  0.60416  1.0000
  I   I213      1.0  0.23146  0.06291  0.97590  1.0000
  I   I214      1.0  0.61883  0.42624  0.44825  1.0000
  I   I215      1.0  0.50230  0.05822  0.52384  1.0000
  I   I216      1.0  0.03415  0.91303  0.32387  1.0000
  I   I217      1.0  0.63456  0.76719  0.95118  1.0000
  I   I218      1.0  0.50103  0.94306  0.03827  1.0000
  I   I219      1.0  0.92547  0.89564  0.30449  1.0000
  I   I220      1.0  0.66515  0.30674  0.08156  1.0000
  I   I221      1.0  0.79830  0.94580  0.56603  1.0000
  I   I222      1.0  0.85207  0.22073  0.34612  1.0000
  I   I223      1.0  0.78872  0.24584  0.79564  1.0000
  I   I224      1.0  0.76369  0.23945  0.22532  1.0000
  I   I225      1.0  0.37663  0.85154  0.02389  1.0000
  I   I226      1.0  0.52294  0.51137  0.88924  1.0000
  I   I227      1.0  0.76579  0.50289  0.52588  1.0000
  I   I228      1.0  0.88636  0.56819  0.35028  1.0000
  I   I229      1.0  0.04270  0.40132  0.30432  1.0000
  I   I230      1.0  0.56207  0.31473  0.96217  1.0000
  I   I231      1.0  0.96568  0.83628  0.66198  1.0000
  I   I232      1.0  0.08986  0.09783  0.36099  1.0000
  I   I233      1.0  0.51727  0.71374  0.02428  1.0000
  I   I234      1.0  0.92930  0.31278  0.03519  1.0000
  I   I235      1.0  0.65868  0.11284  0.41376  1.0000
  I   I236      1.0  0.74468  0.63310  0.01768  1.0000
  I   I237      1.0  0.32274  0.64165  0.77592  1.0000
  I   I238      1.0  0.35655  0.45166  0.44037  1.0000
  I   I239      1.0  0.09579  0.48106  0.01357  1.0000
  I   I240      1.0  0.55849  0.63120  0.44320  1.0000
  I   I241      1.0  0.63422  0.78528  0.69083  1.0000
  I   I242      1.0  0.49467  0.03778  0.20428  1.0000
  I   I243      1.0  0.87309  0.76159  0.35760  1.0000
  I   I244      1.0  0.04495  0.99402  0.85927  1.0000
  I   I245      1.0  0.25670  0.56046  0.49942  1.0000
  I   I246      1.0  0.50342  0.16673  0.63928  1.0000
  I   I247      1.0  0.86843  0.03512  0.21124  1.0000
  I   I248      1.0  0.51974  0.17887  0.22773  1.0000
  I   I249      1.0  0.34233  0.73391  0.53619  1.0000
  I   I250      1.0  0.51689  0.00567  0.93404  1.0000
  I   I251      1.0  0.06195  0.49172  0.73031  1.0000
  I   I252      1.0  0.13798  0.63858  0.51998  1.0000
  I   I253      1.0  0.19870  0.13727  0.58779  1.0000
  I   I254      1.0  0.07932  0.05483  0.45627  1.0000
  I   I255      1.0  0.62913  0.22743  0.81254  1.0000
  I   I256      1.0  0.16289  0.30839  0.72493  1.0000
  I   I257      1.0  0.32045  0.13609  0.53839  1.0000
  I   I258      1.0  0.10141  0.68495  0.01177  1.0000
  I   I259      1.0  0.53710  0.74537  0.38316  1.0000
  I   I260      1.0  0.13991  0.30642  0.04683  1.0000
  I   I261      1.0  0.20100  0.97686  0.96251  1.0000
  I   I262      1.0  0.70102  0.39815  0.51240  1.0000
  I   I263      1.0  0.60266  0.04092  0.65115  1.0000
  I   I264      1.0  0.01005  0.93628  0.44412  1.0000
  I   I265      1.0  0.67773  0.76483  0.10466  1.0000
  I   I266      1.0  0.52142  0.89613  0.98000  1.0000
  I   I267      1.0  0.99006  0.88884  0.31521  1.0000
  I   I268      1.0  0.67094  0.36622  0.09017  1.0000
  I   I269      1.0  0.87771  0.98366  0.42901  1.0000
  I   I270      1.0  0.80459  0.28678  0.36936  1.0000
  I   I271      1.0  0.75375  0.21332  0.72371  1.0000
  I   I272      1.0  0.63651  0.29670  0.22399  1.0000
  I   I273      1.0  0.33839  0.90660  0.95107  1.0000
  I   I274      1.0  0.58652  0.54121  0.92721  1.0000
  I   I275      1.0  0.79448  0.55365  0.48560  1.0000
  I   I276      1.0  0.85133  0.54267  0.33589  1.0000
  I   I277      1.0  0.98578  0.43506  0.35547  1.0000
  I   I278      1.0  0.51520  0.27373  0.03253  1.0000
  I   I279      1.0  0.05077  0.85671  0.78353  1.0000
  I   I280      1.0  0.60202  0.89601  0.30598  1.0000
  I   I281      1.0  0.63030  0.57753  0.98402  1.0000
  I   I282      1.0  0.89769  0.36166  0.13944  1.0000
  I   I283      1.0  0.62177  0.15560  0.49836  1.0000
  I   I284      1.0  0.78097  0.55959  0.96030  1.0000
  I   I285      1.0  0.38156  0.58084  0.81123  1.0000
  I   I286      1.0  0.29913  0.51970  0.22864  1.0000
  I   I287      1.0  0.16376  0.53233  0.03968  1.0000
  I   I288      1.0  0.54752  0.65484  0.58666  1.0000
  I   I289      1.0  0.58653  0.75987  0.65508  1.0000
  I   I290      1.0  0.00972  0.20175  0.08137  1.0000
  I   I291      1.0  0.45021  0.09020  0.13916  1.0000
  I   I292      1.0  0.12383  0.98083  0.84598  1.0000
  I   I293      1.0  0.20286  0.60225  0.56883  1.0000
  I   I294      1.0  0.47776  0.26554  0.78552  1.0000
  I   I295      1.0  0.78963  0.09397  0.25987  1.0000
  I   I296      1.0  0.47700  0.15047  0.19453  1.0000
  I   I297      1.0  0.27668  0.77606  0.78295  1.0000
  I   I298      1.0  0.71348  0.18160  0.53660  1.0000
  I   I299      1.0  0.64671  0.92739  0.46413  1.0000
  I   I300      1.0  0.08479  0.62933  0.40944  1.0000
  I   I301      1.0  0.60226  0.27615  0.75494  1.0000
  I   I302      1.0  0.23091  0.19251  0.59742  1.0000
  I   I303      1.0  0.15996  0.06993  0.27819  1.0000
  I   I304      1.0  0.11017  0.61688  0.00816  1.0000
  I   I305      1.0  0.67504  0.88945  0.66434  1.0000
  I   I306      1.0  0.51135  0.29343  0.16066  1.0000
  I   I307      1.0  0.46737  0.84155  0.24044  1.0000
  I   I308      1.0  0.39582  0.97287  0.55820  1.0000
  I   I309      1.0  0.19177  0.07330  0.84905  1.0000
  I   I310      1.0  0.69026  0.39199  0.39419  1.0000
  I   I311      1.0  0.56718  0.10450  0.63655  1.0000
  I   I312      1.0  0.17052  0.93821  0.18774  1.0000
  I   I313      1.0  0.96106  0.85241  0.39122  1.0000
  I   I314      1.0  0.66677  0.79564  0.98904  1.0000
  I   I315      1.0  0.42543  0.94996  0.01048  1.0000
  I   I316      1.0  0.84920  0.21269  0.46893  1.0000
  I   I317      1.0  0.68563  0.35236  0.96223  1.0000
  I   I318      1.0  0.80291  0.00930  0.47635  1.0000
  I   I319      1.0  0.48487  0.44846  0.63703  1.0000
  I   I320      1.0  0.86256  0.06917  0.62009  1.0000
  I   I321      1.0  0.70013  0.25016  0.18091  1.0000
  I   I322      1.0  0.54586  0.47734  0.05303  1.0000
  I   I323      1.0  0.72933  0.51704  0.62293  1.0000
  I   I324      1.0  0.83067  0.62491  0.41996  1.0000
  I   I325      1.0  0.91540  0.44356  0.19395  1.0000
  I   I326      1.0  0.45728  0.30884  0.12245  1.0000
  I   I327      1.0  0.00947  0.86468  0.68639  1.0000
  I   I328      1.0  0.13134  0.12531  0.37045  1.0000
  I   I329      1.0  0.62632  0.63422  0.88606  1.0000
  I   I330      1.0  0.88772  0.27641  0.04541  1.0000
  I   I331      1.0  0.39928  0.62857  0.72945  1.0000
  I   I332      1.0  0.63888  0.19383  0.41106  1.0000
  I   I333      1.0  0.79348  0.57622  0.07633  1.0000
  I   I334      1.0  0.59466  0.59524  0.54744  1.0000
  I   I335      1.0  0.29593  0.47688  0.44372  1.0000
  I   I336      1.0  0.15048  0.50709  0.12460  1.0000
  I   I337      1.0  0.55290  0.88192  0.55131  1.0000
  I   I338      1.0  0.08538  0.14208  0.06234  1.0000
  I   I339      1.0  0.43187  0.05006  0.19605  1.0000
  I   I340      1.0  0.04074  0.02239  0.98493  1.0000
  I   I341      1.0  0.85356  0.76919  0.66262  1.0000
  I   I342      1.0  0.43693  0.28897  0.67463  1.0000
  I   I343      1.0  0.85076  0.05957  0.32746  1.0000
  I   I344      1.0  0.39789  0.20995  0.19843  1.0000
  I   I345      1.0  0.29442  0.76079  0.66703  1.0000
  I   I346      1.0  0.67789  0.15078  0.52260  1.0000
  I   I347      1.0  0.50831  0.08226  0.90972  1.0000
  I   I348      1.0  0.10456  0.58280  0.32420  1.0000
  I   I349      1.0  0.65939  0.25544  0.69812  1.0000
  I   I350      1.0  0.25071  0.12686  0.59082  1.0000
  I   I351      1.0  0.06482  0.06309  0.32986  1.0000
  I   I352      1.0  0.13451  0.71079  0.06428  1.0000
  I   I353      1.0  0.08599  0.31084  0.75655  1.0000
  I   I354      1.0  0.43641  0.35895  0.22457  1.0000
  I   I355      1.0  0.41235  0.86311  0.33868  1.0000
  I   I356      1.0  0.06749  0.36004  0.02875  1.0000
  I   I357      1.0  0.24265  0.99985  0.94417  1.0000
  I   I358      1.0  0.96725  0.94776  0.35789  1.0000
  I   I359      1.0  0.60962  0.08408  0.55636  1.0000
  I   I360      1.0  0.23408  0.88252  0.23323  1.0000
  I   I361      1.0  0.98387  0.78240  0.34673  1.0000
  I   I362      1.0  0.60272  0.83524  0.92532  1.0000
  I   I363      1.0  0.50555  0.85179  0.10243  1.0000
  I   I364      1.0  0.80601  0.27568  0.48343  1.0000
  I   I365      1.0  0.68802  0.40787  0.02575  1.0000
  I   I366      1.0  0.76650  0.01474  0.59350  1.0000
  I   I367      1.0  0.51764  0.38110  0.68563  1.0000
  I   I368      1.0  0.81460  0.16086  0.61979  1.0000
  I   I369      1.0  0.71385  0.26535  0.29673  1.0000
  I   I370      1.0  0.51731  0.46183  0.94525  1.0000
  I   I371      1.0  0.76263  0.52020  0.40153  1.0000
  I   I372      1.0  0.82263  0.62349  0.31722  1.0000
  I   I373      1.0  0.01204  0.37166  0.36527  1.0000
  I   I374      1.0  0.57662  0.25700  0.99962  1.0000
  I   I375      1.0  0.96448  0.88504  0.60352  1.0000
  I   I376      1.0  0.59362  0.90467  0.17625  1.0000
  I   I377      1.0  0.50809  0.65804  0.01079  1.0000
  I   I378      1.0  0.91868  0.29232  0.14058  1.0000
  I   I379      1.0  0.36490  0.64294  0.82526  1.0000
  I   I380      1.0  0.82402  0.07231  0.79875  1.0000
  I   I381      1.0  0.79215  0.52349  0.05180  1.0000
  I   I382      1.0  0.48996  0.71228  0.60825  1.0000
  I   I383      1.0  0.28365  0.49976  0.33759  1.0000
  I   I384      1.0  0.08282  0.55656  0.01227  1.0000
