data_image0
_chemical_formula_structural       Ti96I384
_chemical_formula_sum              "Ti96 I384"
_cell_length_a       53.0758
_cell_length_b       53.2679
_cell_length_c       25.6755
_cell_angle_alpha    88.7757
_cell_angle_beta     88.7757
_cell_angle_gamma    62.1586

_space_group_name_H-M_alt    "P 1"
_space_group_IT_number       1

loop_
  _space_group_symop_operation_xyz
  'x, y, z'

loop_
  _atom_site_type_symbol
  _atom_site_label
  _atom_site_symmetry_multiplicity
  _atom_site_fract_x
  _atom_site_fract_y
  _atom_site_fract_z
  _atom_site_occupancy
  Ti  Ti1       1.0  0.61737  0.72309  0.32756  1.0000
  Ti  Ti2       1.0  0.02637  0.04417  0.31886  1.0000
  Ti  Ti3       1.0  0.46643  0.86215  0.23848  1.0000
  Ti  Ti4       1.0  0.21333  0.02358  0.49232  1.0000
  Ti  Ti5       1.0  0.13304  0.25934  0.40010  1.0000
  Ti  Ti6       1.0  0.11311  0.22680  0.90004  1.0000
  Ti  Ti7       1.0  0.04689  0.81351  0.20500  1.0000
  Ti  Ti8       1.0  0.94636  0.10473  0.58490  1.0000
  Ti  Ti9       1.0  0.88887  0.84203  0.34118  1.0000
  Ti  Ti10      1.0  0.34953  0.76143  0.94333  1.0000
  Ti  Ti11      1.0  0.88711  0.79459  0.84506  1.0000
  Ti  Ti12      1.0  0.00363  0.64176  0.97885  1.0000
  Ti  Ti13      1.0  0.35904  0.22620  0.27457  1.0000
  Ti  Ti14      1.0  0.36528  0.12545  0.65997  1.0000
  Ti  Ti15      1.0  0.33638  0.11250  0.08630  1.0000
  Ti  Ti16      1.0  0.17567  0.67385  0.03299  1.0000
  Ti  Ti17      1.0  0.20654  0.62420  0.33921  1.0000
  Ti  Ti18      1.0  0.27245  0.38831  0.41701  1.0000
  Ti  Ti19      1.0  0.46498  0.71292  0.69813  1.0000
  Ti  Ti20      1.0  0.63500  0.83803  0.76353  1.0000
  Ti  Ti21      1.0  0.24419  0.58337  0.76458  1.0000
  Ti  Ti22      1.0  0.41550  0.89772  0.83567  1.0000
  Ti  Ti23      1.0  0.75931  0.85531  0.11424  1.0000
  Ti  Ti24      1.0  0.49542  0.94366  0.60367  1.0000
  Ti  Ti25      1.0  0.28822  0.26158  0.79013  1.0000
  Ti  Ti26      1.0  0.36088  0.30209  0.99790  1.0000
  Ti  Ti27      1.0  0.49547  0.50211  0.53472  1.0000
  Ti  Ti28      1.0  0.41692  0.64907  0.19432  1.0000
  Ti  Ti29      1.0  0.65757  0.39486  0.95530  1.0000
  Ti  Ti30      1.0  0.68641  0.51183  0.89488  1.0000
  Ti  Ti31      1.0  0.92568  0.46153  0.14321  1.0000
  Ti  Ti32      1.0  0.79546  0.36960  0.66102  1.0000
  Ti  Ti33      1.0  0.91306  0.52192  0.84236  1.0000
  Ti  Ti34      1.0  0.87893  0.97695  0.86879  1.0000
  Ti  Ti35      1.0  0.76726  0.64026  0.02114  1.0000
  Ti  Ti36      1.0  0.80899  0.60596  0.54629  1.0000
  Ti  Ti37      1.0  0.65194  0.23162  0.23926  1.0000
  Ti  Ti38      1.0  0.59768  0.34838  0.33359  1.0000
  Ti  Ti39      1.0  0.53216  0.32533  0.89149  1.0000
  Ti  Ti40      1.0  0.98675  0.12870  0.94474  1.0000
  Ti  Ti41      1.0  0.78184  0.21952  0.66069  1.0000
  Ti  Ti42      1.0  0.24229  0.85693  0.30593  1.0000
  Ti  Ti43      1.0  0.78956  0.38191  0.17556  1.0000
  Ti  Ti44      1.0  0.04552  0.44985  0.48427  1.0000
  Ti  Ti45      1.0  0.08309  0.48517  0.70300  1.0000
  Ti  Ti46      1.0  0.65399  0.00540  0.54706  1.0000
  Ti  Ti47      1.0  0.57405  0.06745  0.25549  1.0000
  Ti  Ti48      1.0  0.61191  0.16432  0.83578  1.0000
  Ti  Ti49      1.0  0.54535  0.77707  0.31667  1.0000
  Ti  Ti50      1.0  0.00095  0.99541  0.26683  1.0000
  Ti  Ti51      1.0  0.06080  0.09744  0.31177  1.0000
  Ti  Ti52      1.0  0.27866  0.95551  0.45455  1.0000
  Ti  Ti53      1.0  0.09078  0.20485  0.40982  1.0000
  Ti  Ti54      1.0  0.09176  0.24361  0.79680  1.0000
  Ti  Ti55      1.0  0.96344  0.84656  0.24238  1.0000
  Ti  Ti56      1.0  0.94049  0.04428  0.62472  1.0000
  Ti  Ti57      1.0  0.83053  0.87998  0.46535  1.0000
  Ti  Ti58      1.0  0.29147  0.84984  0.98052  1.0000
  Ti  Ti59      1.0  0.30140  0.72868  0.88121  1.0000
  Ti  Ti60      1.0  0.94064  0.70173  0.86155  1.0000
  Ti  Ti61      1.0  0.30229  0.19668  0.15029  1.0000
  Ti  Ti62      1.0  0.41581  0.24340  0.29032  1.0000
  Ti  Ti63      1.0  0.30163  0.14952  0.62873  1.0000
  Ti  Ti64      1.0  0.22689  0.42204  0.33070  1.0000
  Ti  Ti65      1.0  0.20091  0.63801  0.18364  1.0000
  Ti  Ti66      1.0  0.12410  0.64431  0.50675  1.0000
  Ti  Ti67      1.0  0.53500  0.64436  0.74265  1.0000
  Ti  Ti68      1.0  0.72908  0.81598  0.78092  1.0000
  Ti  Ti69      1.0  0.30240  0.49776  0.70842  1.0000
  Ti  Ti70      1.0  0.46340  0.90923  0.72393  1.0000
  Ti  Ti71      1.0  0.82787  0.77521  0.08344  1.0000
  Ti  Ti72      1.0  0.70948  0.91662  0.20274  1.0000
  Ti  Ti73      1.0  0.48693  0.48970  0.65452  1.0000
  Ti  Ti74      1.0  0.30786  0.32836  0.84813  1.0000
  Ti  Ti75      1.0  0.33524  0.38549  0.06093  1.0000
  Ti  Ti76      1.0  0.68361  0.58547  0.86576  1.0000
  Ti  Ti77      1.0  0.49888  0.60070  0.15089  1.0000
  Ti  Ti78      1.0  0.63774  0.46454  0.87445  1.0000
  Ti  Ti79      1.0  0.92002  0.44924  0.92395  1.0000
  Ti  Ti80      1.0  0.97423  0.39197  0.21324  1.0000
  Ti  Ti81      1.0  0.83117  0.35898  0.78445  1.0000
  Ti  Ti82      1.0  0.82962  0.06530  0.88354  1.0000
  Ti  Ti83      1.0  0.71752  0.62497  0.09946  1.0000
  Ti  Ti84      1.0  0.78577  0.68549  0.57382  1.0000
  Ti  Ti85      1.0  0.65699  0.16667  0.17254  1.0000
  Ti  Ti86      1.0  0.60497  0.32405  0.18313  1.0000
  Ti  Ti87      1.0  0.49340  0.40011  0.94369  1.0000
  Ti  Ti88      1.0  0.99702  0.07047  0.91195  1.0000
  Ti  Ti89      1.0  0.76332  0.15963  0.69886  1.0000
  Ti  Ti90      1.0  0.23965  0.78412  0.27332  1.0000
  Ti  Ti91      1.0  0.16728  0.47694  0.65913  1.0000
  Ti  Ti92      1.0  0.80691  0.34041  0.06221  1.0000
  Ti  Ti93      1.0  0.02587  0.53015  0.55090  1.0000
  Ti  Ti94      1.0  0.54993  0.18794  0.89019  1.0000
  Ti  Ti95      1.0  0.69126  0.95296  0.62690  1.0000
  Ti  Ti96      1.0  0.50624  0.11705  0.13951  1.0000
  I   I1        1.0  0.98550  0.97323  0.34927  1.0000
  I   I2        1.0  0.00526  0.10703  0.28864  1.0000
  I   I3        1.0  0.52145  0.80493  0.23062  1.0000
  I   I4        1.0  0.10295  0.15084  0.40510  1.0000
  I   I5        1.0  0.13353  0.25704  0.83033  1.0000
  I   I6        1.0  0.16208  0.17503  0.87479  1.0000
  I   I7        1.0  0.88476  0.08995  0.61114  1.0000
  I   I8        1.0  0.91800  0.12869  0.50183  1.0000
  I   I9        1.0  0.93291  0.86149  0.34531  1.0000
  I   I10       1.0  0.35627  0.70891  0.95829  1.0000
  I   I11       1.0  0.88801  0.74404  0.87609  1.0000
  I   I12       1.0  0.30307  0.89269  0.94652  1.0000
  I   I13       1.0  0.41228  0.20638  0.20962  1.0000
  I   I14       1.0  0.36604  0.09518  0.73779  1.0000
  I   I15       1.0  0.27173  0.20944  0.06538  1.0000
  I   I16       1.0  0.15041  0.67996  0.13739  1.0000
  I   I17       1.0  0.09292  0.68241  0.43585  1.0000
  I   I18       1.0  0.22184  0.39572  0.44618  1.0000
  I   I19       1.0  0.69417  0.81466  0.71356  1.0000
  I   I20       1.0  0.34770  0.46418  0.75862  1.0000
  I   I21       1.0  0.25797  0.62406  0.76714  1.0000
  I   I22       1.0  0.86623  0.73470  0.14313  1.0000
  I   I23       1.0  0.76607  0.79998  0.14305  1.0000
  I   I24       1.0  0.51730  0.88627  0.69775  1.0000
  I   I25       1.0  0.26077  0.37190  0.84748  1.0000
  I   I26       1.0  0.37019  0.35043  0.97641  1.0000
  I   I27       1.0  0.46171  0.47509  0.54372  1.0000
  I   I28       1.0  0.46310  0.65750  0.19072  1.0000
  I   I29       1.0  0.60143  0.45900  0.94513  1.0000
  I   I30       1.0  0.64779  0.55684  0.81430  1.0000
  I   I31       1.0  0.96314  0.41001  0.09487  1.0000
  I   I32       1.0  0.81191  0.40405  0.70389  1.0000
  I   I33       1.0  0.95506  0.46102  0.84772  1.0000
  I   I34       1.0  0.81901  0.62046  0.05450  1.0000
  I   I35       1.0  0.74849  0.69829  0.64576  1.0000
  I   I36       1.0  0.82785  0.10974  0.83755  1.0000
  I   I37       1.0  0.60286  0.28180  0.26576  1.0000
  I   I38       1.0  0.44115  0.43470  0.96174  1.0000
  I   I39       1.0  0.62568  0.13865  0.18244  1.0000
  I   I40       1.0  0.78051  0.11201  0.64695  1.0000
  I   I41       1.0  0.22566  0.75064  0.32428  1.0000
  I   I42       1.0  0.98408  0.04322  0.99116  1.0000
  I   I43       1.0  0.83666  0.28492  0.04940  1.0000
  I   I44       1.0  0.99785  0.50896  0.48322  1.0000
  I   I45       1.0  0.05018  0.52019  0.77762  1.0000
  I   I46       1.0  0.69399  0.00717  0.62040  1.0000
  I   I47       1.0  0.55001  0.03405  0.23381  1.0000
  I   I48       1.0  0.60337  0.18935  0.93686  1.0000
  I   I49       1.0  0.57336  0.75631  0.40999  1.0000
  I   I50       1.0  0.02207  0.02751  0.21298  1.0000
  I   I51       1.0  0.10598  0.07082  0.36497  1.0000
  I   I52       1.0  0.21048  0.02271  0.58937  1.0000
  I   I53       1.0  0.07716  0.26039  0.40450  1.0000
  I   I54       1.0  0.12333  0.22581  0.71536  1.0000
  I   I55       1.0  0.99970  0.82141  0.15397  1.0000
  I   I56       1.0  0.99103  0.99438  0.63848  1.0000
  I   I57       1.0  0.85271  0.89539  0.36810  1.0000
  I   I58       1.0  0.39916  0.74837  0.89633  1.0000
  I   I59       1.0  0.27111  0.73262  0.97020  1.0000
  I   I60       1.0  0.00239  0.66442  0.88141  1.0000
  I   I61       1.0  0.35549  0.18058  0.23748  1.0000
  I   I62       1.0  0.46295  0.20238  0.32911  1.0000
  I   I63       1.0  0.40405  0.08038  0.60395  1.0000
  I   I64       1.0  0.22155  0.64434  0.97427  1.0000
  I   I65       1.0  0.24139  0.60269  0.24990  1.0000
  I   I66       1.0  0.14308  0.67521  0.55483  1.0000
  I   I67       1.0  0.55424  0.60732  0.67024  1.0000
  I   I68       1.0  0.61061  0.80889  0.76168  1.0000
  I   I69       1.0  0.30016  0.53739  0.79544  1.0000
  I   I70       1.0  0.40453  0.92937  0.72730  1.0000
  I   I71       1.0  0.78014  0.83093  0.02501  1.0000
  I   I72       1.0  0.71771  0.96163  0.18125  1.0000
  I   I73       1.0  0.52908  0.48045  0.45678  1.0000
  I   I74       1.0  0.35946  0.28374  0.89044  1.0000
  I   I75       1.0  0.28533  0.40989  0.10385  1.0000
  I   I76       1.0  0.42971  0.59665  0.21985  1.0000
  I   I77       1.0  0.51914  0.57942  0.24338  1.0000
  I   I78       1.0  0.68105  0.47309  0.81983  1.0000
  I   I79       1.0  0.88152  0.45490  0.99889  1.0000
  I   I80       1.0  0.97450  0.38964  0.31284  1.0000
  I   I81       1.0  0.78877  0.34630  0.80124  1.0000
  I   I82       1.0  0.83583  0.96839  0.85300  1.0000
  I   I83       1.0  0.74682  0.69524  0.01989  1.0000
  I   I84       1.0  0.74171  0.72369  0.51078  1.0000
  I   I85       1.0  0.61858  0.22197  0.15780  1.0000
  I   I86       1.0  0.61479  0.35834  0.12640  1.0000
  I   I87       1.0  0.48567  0.35939  0.99633  1.0000
  I   I88       1.0  0.01147  0.15736  0.99010  1.0000
  I   I89       1.0  0.80146  0.24006  0.73123  1.0000
  I   I90       1.0  0.25564  0.85110  0.40493  1.0000
  I   I91       1.0  0.19457  0.45893  0.57083  1.0000
  I   I92       1.0  0.82574  0.32669  0.18057  1.0000
  I   I93       1.0  0.06987  0.52747  0.61373  1.0000
  I   I94       1.0  0.50832  0.17767  0.87175  1.0000
  I   I95       1.0  0.67436  0.91461  0.60741  1.0000
  I   I96       1.0  0.48603  0.17131  0.12218  1.0000
  I   I97       1.0  0.50404  0.86909  0.29985  1.0000
  I   I98       1.0  0.64414  0.66906  0.30807  1.0000
  I   I99       1.0  0.07104  0.04367  0.26215  1.0000
  I   I100      1.0  0.29768  0.92376  0.36814  1.0000
  I   I101      1.0  0.23374  0.06242  0.48919  1.0000
  I   I102      1.0  0.12381  0.27523  0.30009  1.0000
  I   I103      1.0  0.92244  0.82567  0.24269  1.0000
  I   I104      1.0  0.06618  0.82597  0.28859  1.0000
  I   I105      1.0  0.82057  0.85916  0.55282  1.0000
  I   I106      1.0  0.97158  0.61989  0.02724  1.0000
  I   I107      1.0  0.33842  0.74203  0.84031  1.0000
  I   I108      1.0  0.96221  0.69684  0.76947  1.0000
  I   I109      1.0  0.27250  0.20644  0.23224  1.0000
  I   I110      1.0  0.38775  0.21498  0.36495  1.0000
  I   I111      1.0  0.39844  0.14847  0.66330  1.0000
  I   I112      1.0  0.26003  0.36399  0.32278  1.0000
  I   I113      1.0  0.19808  0.60085  0.12046  1.0000
  I   I114      1.0  0.23326  0.64389  0.39371  1.0000
  I   I115      1.0  0.48354  0.65213  0.69028  1.0000
  I   I116      1.0  0.46776  0.70323  0.59967  1.0000
  I   I117      1.0  0.59604  0.87887  0.82306  1.0000
  I   I118      1.0  0.45431  0.96536  0.69603  1.0000
  I   I119      1.0  0.43906  0.86648  0.92334  1.0000
  I   I120      1.0  0.69881  0.88531  0.12269  1.0000
  I   I121      1.0  0.52961  0.51808  0.57151  1.0000
  I   I122      1.0  0.27683  0.29424  0.87319  1.0000
  I   I123      1.0  0.41412  0.26039  0.99712  1.0000
  I   I124      1.0  0.72812  0.52247  0.85619  1.0000
  I   I125      1.0  0.40074  0.67116  0.28288  1.0000
  I   I126      1.0  0.68296  0.43177  0.94373  1.0000
  I   I127      1.0  0.89417  0.51090  0.93585  1.0000
  I   I128      1.0  0.91067  0.42264  0.18998  1.0000
  I   I129      1.0  0.73982  0.39751  0.65575  1.0000
  I   I130      1.0  0.82838  0.62691  0.61924  1.0000
  I   I131      1.0  0.85873  0.03156  0.79380  1.0000
  I   I132      1.0  0.73227  0.58102  0.16549  1.0000
  I   I133      1.0  0.50982  0.44013  0.92018  1.0000
  I   I134      1.0  0.65565  0.27420  0.17531  1.0000
  I   I135      1.0  0.55817  0.33933  0.38146  1.0000
  I   I136      1.0  0.20098  0.90820  0.29608  1.0000
  I   I137      1.0  0.96265  0.06588  0.84443  1.0000
  I   I138      1.0  0.82061  0.21137  0.59588  1.0000
  I   I139      1.0  0.12665  0.49203  0.74831  1.0000
  I   I140      1.0  0.85595  0.34413  0.04192  1.0000
  I   I141      1.0  0.07283  0.48553  0.49997  1.0000
  I   I142      1.0  0.62623  0.19147  0.77586  1.0000
  I   I143      1.0  0.69945  0.96147  0.51346  1.0000
  I   I144      1.0  0.56655  0.09570  0.15426  1.0000
  I   I145      1.0  0.59574  0.78150  0.29956  1.0000
  I   I146      1.0  0.97067  0.04358  0.33106  1.0000
  I   I147      1.0  0.44012  0.83297  0.21970  1.0000
  I   I148      1.0  0.29995  0.90735  0.51198  1.0000
  I   I149      1.0  0.11547  0.19664  0.49698  1.0000
  I   I150      1.0  0.05693  0.26318  0.89527  1.0000
  I   I151      1.0  0.01219  0.79720  0.27566  1.0000
  I   I152      1.0  0.99661  0.09575  0.57637  1.0000
  I   I153      1.0  0.87708  0.82883  0.44217  1.0000
  I   I154      1.0  0.36221  0.76520  0.04078  1.0000
  I   I155      1.0  0.88738  0.82767  0.92052  1.0000
  I   I156      1.0  0.93701  0.65333  0.87902  1.0000
  I   I157      1.0  0.30836  0.24227  0.14103  1.0000
  I   I158      1.0  0.34904  0.13380  0.55991  1.0000
  I   I159      1.0  0.31603  0.07836  0.12005  1.0000
  I   I160      1.0  0.31730  0.38972  0.36357  1.0000
  I   I161      1.0  0.16995  0.61609  0.25995  1.0000
  I   I162      1.0  0.30309  0.34158  0.46589  1.0000
  I   I163      1.0  0.53275  0.61104  0.81563  1.0000
  I   I164      1.0  0.76360  0.79850  0.86347  1.0000
  I   I165      1.0  0.19607  0.60828  0.71620  1.0000
  I   I166      1.0  0.46500  0.92427  0.83308  1.0000
  I   I167      1.0  0.81580  0.82788  0.13841  1.0000
  I   I168      1.0  0.46245  0.98353  0.54066  1.0000
  I   I169      1.0  0.25321  0.24269  0.83677  1.0000
  I   I170      1.0  0.30756  0.34169  0.96391  1.0000
  I   I171      1.0  0.53214  0.44802  0.61198  1.0000
  I   I172      1.0  0.72705  0.59523  0.88577  1.0000
  I   I173      1.0  0.65999  0.40175  0.06068  1.0000
  I   I174      1.0  0.63675  0.51177  0.91620  1.0000
  I   I175      1.0  0.94082  0.49432  0.08045  1.0000
  I   I176      1.0  0.85097  0.32969  0.67266  1.0000
  I   I177      1.0  0.95965  0.52220  0.79506  1.0000
  I   I178      1.0  0.86067  0.01608  0.94350  1.0000
  I   I179      1.0  0.69837  0.65538  0.01585  1.0000
  I   I180      1.0  0.75508  0.62480  0.52131  1.0000
  I   I181      1.0  0.63402  0.19535  0.27871  1.0000
  I   I182      1.0  0.64728  0.33293  0.27586  1.0000
  I   I183      1.0  0.50254  0.30467  0.85258  1.0000
  I   I184      1.0  0.95039  0.16311  0.88157  1.0000
  I   I185      1.0  0.75049  0.26748  0.60502  1.0000
  I   I186      1.0  0.27750  0.76224  0.20209  1.0000
  I   I187      1.0  0.75611  0.36233  0.11519  1.0000
  I   I188      1.0  0.08585  0.41152  0.54512  1.0000
  I   I189      1.0  0.03998  0.48742  0.64326  1.0000
  I   I190      1.0  0.65865  0.04365  0.48237  1.0000
  I   I191      1.0  0.59482  0.05807  0.35208  1.0000
  I   I192      1.0  0.59592  0.13449  0.77235  1.0000
  I   I193      1.0  0.64979  0.73558  0.38916  1.0000
  I   I194      1.0  0.05486  0.99017  0.34321  1.0000
  I   I195      1.0  0.42931  0.89282  0.30798  1.0000
  I   I196      1.0  0.16055  0.05149  0.46580  1.0000
  I   I197      1.0  0.14154  0.20169  0.36388  1.0000
  I   I198      1.0  0.09666  0.19597  0.95878  1.0000
  I   I199      1.0  0.06797  0.83765  0.13469  1.0000
  I   I200      1.0  0.90765  0.01729  0.65692  1.0000
  I   I201      1.0  0.85540  0.83298  0.28498  1.0000
  I   I202      1.0  0.34020  0.81472  0.91250  1.0000
  I   I203      1.0  0.89125  0.81290  0.75070  1.0000
  I   I204      1.0  0.02927  0.65911  0.04103  1.0000
  I   I205      1.0  0.30835  0.25083  0.32423  1.0000
  I   I206      1.0  0.32135  0.18675  0.66185  1.0000
  I   I207      1.0  0.31512  0.11559  0.99721  1.0000
  I   I208      1.0  0.14221  0.65542  0.99958  1.0000
  I   I209      1.0  0.22905  0.56881  0.38022  1.0000
  I   I210      1.0  0.27873  0.41675  0.49351  1.0000
  I   I211      1.0  0.46445  0.76351  0.68562  1.0000
  I   I212      1.0  0.77142  0.81474  0.72102  1.0000
  I   I213      1.0  0.26349  0.54913  0.67282  1.0000
  I   I214      1.0  0.39059  0.87240  0.79953  1.0000
  I   I215      1.0  0.76983  0.89678  0.07829  1.0000
  I   I216      1.0  0.52672  0.96396  0.64101  1.0000
  I   I217      1.0  0.25066  0.28721  0.71569  1.0000
  I   I218      1.0  0.34048  0.26845  0.02680  1.0000
  I   I219      1.0  0.46616  0.46015  0.71257  1.0000
  I   I220      1.0  0.36622  0.66084  0.16259  1.0000
  I   I221      1.0  0.62661  0.37169  0.95611  1.0000
  I   I222      1.0  0.72450  0.46934  0.94734  1.0000
  I   I223      1.0  0.87718  0.50144  0.18410  1.0000
  I   I224      1.0  0.79306  0.32006  0.65755  1.0000
  I   I225      1.0  0.89362  0.50535  0.76443  1.0000
  I   I226      1.0  0.92609  0.93622  0.90909  1.0000
  I   I227      1.0  0.78040  0.62958  0.92300  1.0000
  I   I228      1.0  0.82877  0.57353  0.46512  1.0000
  I   I229      1.0  0.69597  0.19401  0.18743  1.0000
  I   I230      1.0  0.58317  0.39602  0.37573  1.0000
  I   I231      1.0  0.48373  0.38153  0.85433  1.0000
  I   I232      1.0  0.95064  0.14198  0.02543  1.0000
  I   I233      1.0  0.73728  0.14780  0.77121  1.0000
  I   I234      1.0  0.19119  0.79397  0.21988  1.0000
  I   I235      1.0  0.75305  0.40059  0.25834  1.0000
  I   I236      1.0  0.01177  0.42756  0.48826  1.0000
  I   I237      1.0  0.13607  0.44515  0.65255  1.0000
  I   I238      1.0  0.61333  0.00608  0.49020  1.0000
  I   I239      1.0  0.62606  0.03708  0.21594  1.0000
  I   I240      1.0  0.66263  0.11856  0.84897  1.0000
  I   I241      1.0  0.62651  0.72742  0.22536  1.0000
  I   I242      1.0  0.03034  0.06662  0.41118  1.0000
  I   I243      1.0  0.46912  0.88436  0.15260  1.0000
  I   I244      1.0  0.21983  0.96795  0.47635  1.0000
  I   I245      1.0  0.18642  0.24209  0.39967  1.0000
  I   I246      1.0  0.13184  0.25427  0.95835  1.0000
  I   I247      1.0  0.08735  0.76483  0.18581  1.0000
  I   I248      1.0  0.95535  0.05204  0.53064  1.0000
  I   I249      1.0  0.93326  0.78363  0.34961  1.0000
  I   I250      1.0  0.28347  0.80195  0.95805  1.0000
  I   I251      1.0  0.83142  0.81488  0.86002  1.0000
  I   I252      1.0  0.04598  0.59857  0.93846  1.0000
  I   I253      1.0  0.35714  0.27172  0.22134  1.0000
  I   I254      1.0  0.28082  0.14774  0.71761  1.0000
  I   I255      1.0  0.39238  0.07838  0.08913  1.0000
  I   I256      1.0  0.16293  0.72755  0.01786  1.0000
  I   I257      1.0  0.16413  0.63621  0.42131  1.0000
  I   I258      1.0  0.20876  0.41941  0.24392  1.0000
  I   I259      1.0  0.42029  0.71932  0.74491  1.0000
  I   I260      1.0  0.70715  0.86958  0.78863  1.0000
  I   I261      1.0  0.22294  0.56751  0.85723  1.0000
  I   I262      1.0  0.37715  0.93786  0.88747  1.0000
  I   I263      1.0  0.75615  0.86566  0.23074  1.0000
  I   I264      1.0  0.52797  0.90596  0.53313  1.0000
  I   I265      1.0  0.33871  0.22443  0.81372  1.0000
  I   I266      1.0  0.35705  0.32433  0.09591  1.0000
  I   I267      1.0  0.45165  0.54789  0.48427  1.0000
  I   I268      1.0  0.44790  0.62877  0.09842  1.0000
  I   I269      1.0  0.70697  0.35365  0.95288  1.0000
  I   I270      1.0  0.67035  0.55843  0.94890  1.0000
  I   I271      1.0  0.96954  0.45588  0.20345  1.0000
  I   I272      1.0  0.79545  0.37670  0.56137  1.0000
  I   I273      1.0  0.87834  0.57485  0.84255  1.0000
  I   I274      1.0  0.90032  0.95843  0.77146  1.0000
  I   I275      1.0  0.74691  0.64924  0.14139  1.0000
  I   I276      1.0  0.81988  0.56169  0.60448  1.0000
  I   I277      1.0  0.68161  0.22241  0.32319  1.0000
  I   I278      1.0  0.63190  0.30781  0.40166  1.0000
  I   I279      1.0  0.55794  0.28335  0.96055  1.0000
  I   I280      1.0  0.02043  0.10154  0.84986  1.0000
  I   I281      1.0  0.75213  0.18595  0.60083  1.0000
  I   I282      1.0  0.28021  0.86183  0.24880  1.0000
  I   I283      1.0  0.79282  0.40395  0.08179  1.0000
  I   I284      1.0  0.04779  0.44973  0.38653  1.0000
  I   I285      1.0  0.08762  0.43976  0.75851  1.0000
  I   I286      1.0  0.62419  0.02413  0.63502  1.0000
  I   I287      1.0  0.51660  0.11541  0.25505  1.0000
  I   I288      1.0  0.58210  0.13483  0.91090  1.0000
  I   I289      1.0  0.56288  0.72104  0.29129  1.0000
  I   I290      1.0  0.94968  0.02072  0.21732  1.0000
  I   I291      1.0  0.03739  0.14550  0.35322  1.0000
  I   I292      1.0  0.24559  0.00282  0.38888  1.0000
  I   I293      1.0  0.03413  0.21927  0.43527  1.0000
  I   I294      1.0  0.06495  0.29395  0.76213  1.0000
  I   I295      1.0  0.99848  0.87133  0.23114  1.0000
  I   I296      1.0  0.96106  0.06901  0.68088  1.0000
  I   I297      1.0  0.81225  0.93132  0.49984  1.0000
  I   I298      1.0  0.24220  0.87925  0.01072  1.0000
  I   I299      1.0  0.30909  0.67843  0.84170  1.0000
  I   I300      1.0  0.95298  0.69317  0.97866  1.0000
  I   I301      1.0  0.35151  0.15738  0.07807  1.0000
  I   I302      1.0  0.39484  0.28780  0.34913  1.0000
  I   I303      1.0  0.25462  0.18614  0.57842  1.0000
  I   I304      1.0  0.24515  0.45725  0.29427  1.0000
  I   I305      1.0  0.19174  0.67122  0.27576  1.0000
  I   I306      1.0  0.11927  0.60248  0.45199  1.0000
  I   I307      1.0  0.50223  0.69752  0.78870  1.0000
  I   I308      1.0  0.61862  0.86909  0.67769  1.0000
  I   I309      1.0  0.27059  0.47109  0.72934  1.0000
  I   I310      1.0  0.46728  0.86381  0.78415  1.0000
  I   I311      1.0  0.82468  0.73783  0.02636  1.0000
  I   I312      1.0  0.70638  0.92636  0.30973  1.0000
  I   I313      1.0  0.44461  0.54339  0.64588  1.0000
  I   I314      1.0  0.33541  0.35423  0.81326  1.0000
  I   I315      1.0  0.33013  0.42936  0.99854  1.0000
  I   I316      1.0  0.64038  0.63579  0.87349  1.0000
  I   I317      1.0  0.53145  0.62350  0.11871  1.0000
  I   I318      1.0  0.59974  0.49034  0.79947  1.0000
  I   I319      1.0  0.96974  0.40295  0.94109  1.0000
  I   I320      1.0  0.02681  0.37981  0.20029  1.0000
  I   I321      1.0  0.82821  0.38848  0.86293  1.0000
  I   I322      1.0  0.77834  0.06837  0.86979  1.0000
  I   I323      1.0  0.76337  0.59058  0.03947  1.0000
  I   I324      1.0  0.80663  0.65460  0.48324  1.0000
  I   I325      1.0  0.67506  0.16143  0.07774  1.0000
  I   I326      1.0  0.56453  0.36685  0.24349  1.0000
  I   I327      1.0  0.57354  0.31078  0.82830  1.0000
  I   I328      1.0  0.03709  0.02086  0.88737  1.0000
  I   I329      1.0  0.73691  0.21452  0.73519  1.0000
  I   I330      1.0  0.27672  0.79481  0.33491  1.0000
  I   I331      1.0  0.20194  0.44873  0.73458  1.0000
  I   I332      1.0  0.81469  0.40798  0.22437  1.0000
  I   I333      1.0  0.97810  0.55850  0.60700  1.0000
  I   I334      1.0  0.54577  0.21048  0.79118  1.0000
  I   I335      1.0  0.68869  0.96137  0.72586  1.0000
  I   I336      1.0  0.47025  0.10003  0.17011  1.0000
  I   I337      1.0  0.49958  0.80290  0.37526  1.0000
  I   I338      1.0  0.02997  0.95401  0.19549  1.0000
  I   I339      1.0  0.08457  0.10638  0.23225  1.0000
  I   I340      1.0  0.31641  0.96716  0.50170  1.0000
  I   I341      1.0  0.11663  0.29235  0.48111  1.0000
  I   I342      1.0  0.07585  0.19973  0.80333  1.0000
  I   I343      1.0  0.92522  0.89227  0.19069  1.0000
  I   I344      1.0  0.93235  0.15070  0.64080  1.0000
  I   I345      1.0  0.79399  0.87925  0.40273  1.0000
  I   I346      1.0  0.30529  0.85795  0.07690  1.0000
  I   I347      1.0  0.25335  0.76526  0.83549  1.0000
  I   I348      1.0  0.94789  0.75124  0.85901  1.0000
  I   I349      1.0  0.30932  0.14391  0.18586  1.0000
  I   I350      1.0  0.43417  0.27109  0.22596  1.0000
  I   I351      1.0  0.29483  0.10553  0.59594  1.0000
  I   I352      1.0  0.18297  0.46574  0.36493  1.0000
  I   I353      1.0  0.22522  0.66056  0.11403  1.0000
  I   I354      1.0  0.09593  0.63047  0.57966  1.0000
  I   I355      1.0  0.58060  0.65388  0.75669  1.0000
  I   I356      1.0  0.67514  0.81885  0.84196  1.0000
  I   I357      1.0  0.33461  0.48712  0.62504  1.0000
  I   I358      1.0  0.46831  0.90357  0.60794  1.0000
  I   I359      1.0  0.86330  0.78825  0.03854  1.0000
  I   I360      1.0  0.65359  0.94424  0.20843  1.0000
  I   I361      1.0  0.51829  0.49557  0.72082  1.0000
  I   I362      1.0  0.31721  0.29836  0.75811  1.0000
  I   I363      1.0  0.37327  0.39119  0.11147  1.0000
  I   I364      1.0  0.68738  0.59626  0.76933  1.0000
  I   I365      1.0  0.52139  0.54988  0.10363  1.0000
  I   I366      1.0  0.65221  0.40999  0.84427  1.0000
  I   I367      1.0  0.89890  0.42598  0.86693  1.0000
  I   I368      1.0  0.97992  0.34393  0.18522  1.0000
  I   I369      1.0  0.87779  0.31415  0.80619  1.0000
  I   I370      1.0  0.82395  0.09052  0.97225  1.0000
  I   I371      1.0  0.66405  0.65332  0.14610  1.0000
  I   I372      1.0  0.81883  0.70761  0.58645  1.0000
  I   I373      1.0  0.69618  0.12010  0.21214  1.0000
  I   I374      1.0  0.58405  0.30819  0.10972  1.0000
  I   I375      1.0  0.55111  0.36197  0.94262  1.0000
  I   I376      1.0  0.03529  0.07137  0.98209  1.0000
  I   I377      1.0  0.81147  0.16297  0.71711  1.0000
  I   I378      1.0  0.19758  0.83876  0.30413  1.0000
  I   I379      1.0  0.18084  0.51858  0.66147  1.0000
  I   I380      1.0  0.78254  0.34331  0.97157  1.0000
  I   I381      1.0  0.01568  0.56704  0.47793  1.0000
  I   I382      1.0  0.52837  0.21823  0.96796  1.0000
  I   I383      1.0  0.74599  0.91424  0.63408  1.0000
  I   I384      1.0  0.51018  0.09979  0.04691  1.0000
