data_image0
_chemical_formula_structural       Ti96I384
_chemical_formula_sum              "Ti96 I384"
_cell_length_a       67.6161
_cell_length_b       67.6373
_cell_length_c       33.0585
_cell_angle_alpha    88.7757
_cell_angle_beta     88.7757
_cell_angle_gamma    62.1586

_space_group_name_H-M_alt    "P 1"
_space_group_IT_number       1

loop_
  _space_group_symop_operation_xyz
  'x, y, z'

loop_
  _atom_site_type_symbol
  _atom_site_label
  _atom_site_symmetry_multiplicity
  _atom_site_fract_x
  _atom_site_fract_y
  _atom_site_fract_z
  _atom_site_occupancy
  Ti  Ti1       1.0  0.09139  0.78706  0.07597  1.0000
  Ti  Ti2       1.0  0.71700  0.98086  0.86649  1.0000
  Ti  Ti3       1.0  0.60842  0.91655  0.26179  1.0000
  Ti  Ti4       1.0  0.83414  0.27384  0.19525  1.0000
  Ti  Ti5       1.0  0.55738  0.79965  0.28279  1.0000
  Ti  Ti6       1.0  0.94899  0.71807  0.95161  1.0000
  Ti  Ti7       1.0  0.83127  0.30844  0.61956  1.0000
  Ti  Ti8       1.0  0.27244  0.98093  0.40853  1.0000
  Ti  Ti9       1.0  0.26461  0.96964  0.07413  1.0000
  Ti  Ti10      1.0  0.91000  0.84211  0.41762  1.0000
  Ti  Ti11      1.0  0.17748  0.16422  0.09933  1.0000
  Ti  Ti12      1.0  0.22099  0.60200  0.66703  1.0000
  Ti  Ti13      1.0  0.09813  0.05677  0.19486  1.0000
  Ti  Ti14      1.0  0.94870  0.07687  0.58547  1.0000
  Ti  Ti15      1.0  0.79074  0.96716  0.59618  1.0000
  Ti  Ti16      1.0  0.87383  0.85725  0.48564  1.0000
  Ti  Ti17      1.0  0.29788  0.02343  0.58579  1.0000
  Ti  Ti18      1.0  0.77416  0.76911  0.90083  1.0000
  Ti  Ti19      1.0  0.60598  0.45588  0.01360  1.0000
  Ti  Ti20      1.0  0.10275  0.09963  0.80469  1.0000
  Ti  Ti21      1.0  0.21702  0.99266  0.33413  1.0000
  Ti  Ti22      1.0  0.78268  0.74559  0.32268  1.0000
  Ti  Ti23      1.0  0.51001  0.03157  0.58502  1.0000
  Ti  Ti24      1.0  0.31230  0.80798  0.94414  1.0000
  Ti  Ti25      1.0  0.56046  0.86093  0.72115  1.0000
  Ti  Ti26      1.0  0.36518  0.76858  0.57068  1.0000
  Ti  Ti27      1.0  0.81252  0.18579  0.64271  1.0000
  Ti  Ti28      1.0  0.71459  0.46420  0.45927  1.0000
  Ti  Ti29      1.0  0.02194  0.85228  0.03072  1.0000
  Ti  Ti30      1.0  0.49850  0.01770  0.90830  1.0000
  Ti  Ti31      1.0  0.14662  0.62467  0.95235  1.0000
  Ti  Ti32      1.0  0.90296  0.31595  0.90599  1.0000
  Ti  Ti33      1.0  0.13926  0.83433  0.43151  1.0000
  Ti  Ti34      1.0  0.34535  0.38678  0.61495  1.0000
  Ti  Ti35      1.0  0.65474  0.63057  0.78870  1.0000
  Ti  Ti36      1.0  0.87353  0.10695  0.93260  1.0000
  Ti  Ti37      1.0  0.23996  0.40538  0.43111  1.0000
  Ti  Ti38      1.0  0.38592  0.39072  0.05302  1.0000
  Ti  Ti39      1.0  0.83833  0.65290  0.25001  1.0000
  Ti  Ti40      1.0  0.30465  0.37773  0.91258  1.0000
  Ti  Ti41      1.0  0.49903  0.57389  0.68038  1.0000
  Ti  Ti42      1.0  0.00851  0.25227  0.37532  1.0000
  Ti  Ti43      1.0  0.44917  0.97941  0.26364  1.0000
  Ti  Ti44      1.0  0.89733  0.52156  0.80395  1.0000
  Ti  Ti45      1.0  0.31705  0.65112  0.58061  1.0000
  Ti  Ti46      1.0  0.65035  0.34192  0.28003  1.0000
  Ti  Ti47      1.0  0.29629  0.53327  0.34406  1.0000
  Ti  Ti48      1.0  0.71800  0.22915  0.12022  1.0000
  Ti  Ti49      1.0  0.90657  0.39919  0.22235  1.0000
  Ti  Ti50      1.0  0.99450  0.30334  0.75126  1.0000
  Ti  Ti51      1.0  0.71853  0.04234  0.87606  1.0000
  Ti  Ti52      1.0  0.84099  0.11181  0.38826  1.0000
  Ti  Ti53      1.0  0.42608  0.69060  0.17762  1.0000
  Ti  Ti54      1.0  0.92389  0.67433  0.00509  1.0000
  Ti  Ti55      1.0  0.83767  0.36593  0.56148  1.0000
  Ti  Ti56      1.0  0.10194  0.43282  0.81480  1.0000
  Ti  Ti57      1.0  0.23085  0.94999  0.99741  1.0000
  Ti  Ti58      1.0  0.60965  0.25578  0.42885  1.0000
  Ti  Ti59      1.0  0.26727  0.32420  0.19102  1.0000
  Ti  Ti60      1.0  0.17649  0.59332  0.61426  1.0000
  Ti  Ti61      1.0  0.74241  0.97950  0.50479  1.0000
  Ti  Ti62      1.0  0.04665  0.10818  0.25231  1.0000
  Ti  Ti63      1.0  0.01021  0.07577  0.65766  1.0000
  Ti  Ti64      1.0  0.77123  0.75887  0.02158  1.0000
  Ti  Ti65      1.0  0.65079  0.91189  0.86751  1.0000
  Ti  Ti66      1.0  0.51040  0.20310  0.04676  1.0000
  Ti  Ti67      1.0  0.64815  0.47323  0.95530  1.0000
  Ti  Ti68      1.0  0.87548  0.46599  0.02856  1.0000
  Ti  Ti69      1.0  0.45671  0.68629  0.81933  1.0000
  Ti  Ti70      1.0  0.54044  0.84742  0.35687  1.0000
  Ti  Ti71      1.0  0.45577  0.06489  0.64635  1.0000
  Ti  Ti72      1.0  0.02315  0.17719  0.06588  1.0000
  Ti  Ti73      1.0  0.82397  0.17432  0.72932  1.0000
  Ti  Ti74      1.0  0.59899  0.84367  0.67125  1.0000
  Ti  Ti75      1.0  0.32392  0.82561  0.56183  1.0000
  Ti  Ti76      1.0  0.54717  0.97123  0.86093  1.0000
  Ti  Ti77      1.0  0.68218  0.51451  0.54701  1.0000
  Ti  Ti78      1.0  0.98104  0.86512  0.07471  1.0000
  Ti  Ti79      1.0  0.75171  0.32251  0.82148  1.0000
  Ti  Ti80      1.0  0.72455  0.38776  0.07219  1.0000
  Ti  Ti81      1.0  0.87580  0.35369  0.96610  1.0000
  Ti  Ti82      1.0  0.28155  0.41415  0.55997  1.0000
  Ti  Ti83      1.0  0.62465  0.70423  0.74071  1.0000
  Ti  Ti84      1.0  0.87936  0.05424  0.95346  1.0000
  Ti  Ti85      1.0  0.25685  0.34438  0.41699  1.0000
  Ti  Ti86      1.0  0.49445  0.26979  0.00415  1.0000
  Ti  Ti87      1.0  0.82315  0.62621  0.18241  1.0000
  Ti  Ti88      1.0  0.49868  0.50199  0.26387  1.0000
  Ti  Ti89      1.0  0.44969  0.64524  0.65950  1.0000
  Ti  Ti90      1.0  0.03278  0.28302  0.28688  1.0000
  Ti  Ti91      1.0  0.33672  0.65850  0.66811  1.0000
  Ti  Ti92      1.0  0.31986  0.50823  0.00775  1.0000
  Ti  Ti93      1.0  0.84357  0.52789  0.76181  1.0000
  Ti  Ti94      1.0  0.72174  0.19390  0.00504  1.0000
  Ti  Ti95      1.0  0.67914  0.34500  0.34414  1.0000
  Ti  Ti96      1.0  0.26746  0.54171  0.25559  1.0000
  I   I1        1.0  0.31866  0.51424  0.26876  1.0000
  I   I2        1.0  0.67742  0.08117  0.87503  1.0000
  I   I3        1.0  0.91129  0.38464  0.30028  1.0000
  I   I4        1.0  0.44715  0.71308  0.16487  1.0000
  I   I5        1.0  0.97608  0.73878  0.94262  1.0000
  I   I6        1.0  0.91242  0.68743  0.08349  1.0000
  I   I7        1.0  0.29834  0.96309  0.34631  1.0000
  I   I8        1.0  0.10312  0.43063  0.89909  1.0000
  I   I9        1.0  0.26448  0.95861  0.99042  1.0000
  I   I10       1.0  0.83767  0.87853  0.43787  1.0000
  I   I11       1.0  0.16453  0.17605  0.01840  1.0000
  I   I12       1.0  0.57973  0.75891  0.25598  1.0000
  I   I13       1.0  0.07697  0.12001  0.26867  1.0000
  I   I14       1.0  0.98500  0.04919  0.63101  1.0000
  I   I15       1.0  0.79857  0.00122  0.56231  1.0000
  I   I16       1.0  0.85225  0.89898  0.52155  1.0000
  I   I17       1.0  0.48619  0.21234  0.11243  1.0000
  I   I18       1.0  0.81294  0.74093  0.93951  1.0000
  I   I19       1.0  0.07245  0.13556  0.77061  1.0000
  I   I20       1.0  0.16384  0.16009  0.17199  1.0000
  I   I21       1.0  0.18244  0.00056  0.38196  1.0000
  I   I22       1.0  0.54762  0.00651  0.62411  1.0000
  I   I23       1.0  0.45478  0.07378  0.73114  1.0000
  I   I24       1.0  0.57375  0.85967  0.35994  1.0000
  I   I25       1.0  0.60485  0.86929  0.61156  1.0000
  I   I26       1.0  0.32619  0.79465  0.62122  1.0000
  I   I27       1.0  0.84465  0.19575  0.61680  1.0000
  I   I28       1.0  0.67643  0.49973  0.46754  1.0000
  I   I29       1.0  0.01383  0.87974  0.09796  1.0000
  I   I30       1.0  0.47722  0.00036  0.86288  1.0000
  I   I31       1.0  0.73637  0.41913  0.06098  1.0000
  I   I32       1.0  0.87679  0.38877  0.00397  1.0000
  I   I33       1.0  0.73555  0.33613  0.89699  1.0000
  I   I34       1.0  0.68073  0.60569  0.85468  1.0000
  I   I35       1.0  0.84240  0.09911  0.96933  1.0000
  I   I36       1.0  0.33099  0.38288  0.69090  1.0000
  I   I37       1.0  0.27929  0.30062  0.43894  1.0000
  I   I38       1.0  0.84787  0.58990  0.14249  1.0000
  I   I39       1.0  0.23861  0.37834  0.35514  1.0000
  I   I40       1.0  0.48516  0.60670  0.61086  1.0000
  I   I41       1.0  0.01067  0.31772  0.24362  1.0000
  I   I42       1.0  0.34113  0.37472  0.93899  1.0000
  I   I43       1.0  0.62267  0.24078  0.35712  1.0000
  I   I44       1.0  0.93892  0.50409  0.78689  1.0000
  I   I45       1.0  0.32921  0.66615  0.51351  1.0000
  I   I46       1.0  0.72565  0.31888  0.32855  1.0000
  I   I47       1.0  0.33254  0.54175  0.35218  1.0000
  I   I48       1.0  0.73763  0.25667  0.11813  1.0000
  I   I49       1.0  0.88055  0.40246  0.16222  1.0000
  I   I50       1.0  0.68896  0.96559  0.89017  1.0000
  I   I51       1.0  0.68427  0.02666  0.88551  1.0000
  I   I52       1.0  0.82378  0.24697  0.15310  1.0000
  I   I53       1.0  0.40066  0.69067  0.11567  1.0000
  I   I54       1.0  0.89243  0.67087  0.96503  1.0000
  I   I55       1.0  0.79918  0.30000  0.64252  1.0000
  I   I56       1.0  0.22448  0.01594  0.41243  1.0000
  I   I57       1.0  0.30807  0.94279  0.07028  1.0000
  I   I58       1.0  0.88301  0.86738  0.36447  1.0000
  I   I59       1.0  0.28234  0.28141  0.20811  1.0000
  I   I60       1.0  0.13663  0.59369  0.60743  1.0000
  I   I61       1.0  0.05353  0.07682  0.18521  1.0000
  I   I62       1.0  0.11719  0.01603  0.16512  1.0000
  I   I63       1.0  0.92926  0.11235  0.53800  1.0000
  I   I64       1.0  0.92494  0.83098  0.49515  1.0000
  I   I65       1.0  0.65587  0.87339  0.84550  1.0000
  I   I66       1.0  0.54859  0.16617  0.03828  1.0000
  I   I67       1.0  0.65429  0.44358  0.00713  1.0000
  I   I68       1.0  0.08854  0.08022  0.86169  1.0000
  I   I69       1.0  0.47002  0.67079  0.89049  1.0000
  I   I70       1.0  0.51215  0.88789  0.36361  1.0000
  I   I71       1.0  0.49105  0.07463  0.62597  1.0000
  I   I72       1.0  0.04074  0.16988  0.99795  1.0000
  I   I73       1.0  0.79290  0.21999  0.71118  1.0000
  I   I74       1.0  0.32879  0.79031  0.50402  1.0000
  I   I75       1.0  0.35291  0.83599  0.52862  1.0000
  I   I76       1.0  0.71240  0.42612  0.44425  1.0000
  I   I77       1.0  0.64780  0.52320  0.59046  1.0000
  I   I78       1.0  0.97370  0.90292  0.02883  1.0000
  I   I79       1.0  0.14488  0.81832  0.36108  1.0000
  I   I80       1.0  0.16218  0.65050  0.97657  1.0000
  I   I81       1.0  0.91618  0.35010  0.90582  1.0000
  I   I82       1.0  0.26397  0.38974  0.59965  1.0000
  I   I83       1.0  0.63229  0.67787  0.81786  1.0000
  I   I84       1.0  0.90569  0.05960  0.00908  1.0000
  I   I85       1.0  0.24802  0.35880  0.49612  1.0000
  I   I86       1.0  0.45897  0.30543  0.97325  1.0000
  I   I87       1.0  0.82029  0.69550  0.26615  1.0000
  I   I88       1.0  0.28578  0.36323  0.96526  1.0000
  I   I89       1.0  0.43150  0.67418  0.71625  1.0000
  I   I90       1.0  0.05293  0.28828  0.34497  1.0000
  I   I91       1.0  0.36979  0.62512  0.63318  1.0000
  I   I92       1.0  0.27992  0.53266  0.98202  1.0000
  I   I93       1.0  0.89277  0.55696  0.85039  1.0000
  I   I94       1.0  0.73767  0.18722  0.08535  1.0000
  I   I95       1.0  0.62483  0.37732  0.23360  1.0000
  I   I96       1.0  0.27415  0.50936  0.19702  1.0000
  I   I97       1.0  0.58383  0.95658  0.29538  1.0000
  I   I98       1.0  0.07030  0.79686  0.14358  1.0000
  I   I99       1.0  0.71033  0.99436  0.78719  1.0000
  I   I100      1.0  0.86009  0.24405  0.24607  1.0000
  I   I101      1.0  0.80963  0.15006  0.41502  1.0000
  I   I102      1.0  0.51833  0.80382  0.29240  1.0000
  I   I103      1.0  0.84510  0.36962  0.47630  1.0000
  I   I104      1.0  0.86225  0.26618  0.60383  1.0000
  I   I105      1.0  0.22342  0.92790  0.05960  1.0000
  I   I106      1.0  0.21772  0.62240  0.73694  1.0000
  I   I107      1.0  0.94991  0.84475  0.42086  1.0000
  I   I108      1.0  0.24918  0.55898  0.67688  1.0000
  I   I109      1.0  0.83389  0.95067  0.59814  1.0000
  I   I110      1.0  0.07777  0.05773  0.27190  1.0000
  I   I111      1.0  0.03484  0.09458  0.62121  1.0000
  I   I112      1.0  0.75880  0.74269  0.94898  1.0000
  I   I113      1.0  0.64247  0.90787  0.94160  1.0000
  I   I114      1.0  0.29402  0.06604  0.58463  1.0000
  I   I115      1.0  0.65265  0.50506  0.99674  1.0000
  I   I116      1.0  0.62225  0.41749  0.98691  1.0000
  I   I117      1.0  0.86771  0.44758  0.96824  1.0000
  I   I118      1.0  0.78149  0.71911  0.38342  1.0000
  I   I119      1.0  0.53189  0.85099  0.27253  1.0000
  I   I120      1.0  0.01509  0.14309  0.08414  1.0000
  I   I121      1.0  0.84551  0.19755  0.73276  1.0000
  I   I122      1.0  0.53982  0.88412  0.78292  1.0000
  I   I123      1.0  0.38032  0.77484  0.64063  1.0000
  I   I124      1.0  0.54032  0.00918  0.91589  1.0000
  I   I125      1.0  0.76090  0.43820  0.46355  1.0000
  I   I126      1.0  0.94324  0.87006  0.05201  1.0000
  I   I127      1.0  0.17384  0.84142  0.43400  1.0000
  I   I128      1.0  0.76486  0.35658  0.08094  1.0000
  I   I129      1.0  0.92024  0.32398  0.99969  1.0000
  I   I130      1.0  0.87233  0.11879  0.85510  1.0000
  I   I131      1.0  0.30131  0.43131  0.60001  1.0000
  I   I132      1.0  0.64393  0.65554  0.70244  1.0000
  I   I133      1.0  0.83110  0.63753  0.31891  1.0000
  I   I134      1.0  0.34339  0.41839  0.05630  1.0000
  I   I135      1.0  0.49572  0.28480  0.07659  1.0000
  I   I136      1.0  0.03674  0.20790  0.37018  1.0000
  I   I137      1.0  0.51205  0.49552  0.33405  1.0000
  I   I138      1.0  0.52810  0.55099  0.61840  1.0000
  I   I139      1.0  0.31255  0.63430  0.65723  1.0000
  I   I140      1.0  0.33946  0.48126  0.94858  1.0000
  I   I141      1.0  0.87162  0.54690  0.72491  1.0000
  I   I142      1.0  0.74604  0.16006  0.95871  1.0000
  I   I143      1.0  0.68244  0.36862  0.40132  1.0000
  I   I144      1.0  0.28602  0.56348  0.21501  1.0000
  I   I145      1.0  0.12082  0.74789  0.09598  1.0000
  I   I146      1.0  0.75134  0.93859  0.88073  1.0000
  I   I147      1.0  0.64716  0.90990  0.22475  1.0000
  I   I148      1.0  0.84459  0.11312  0.30768  1.0000
  I   I149      1.0  0.58447  0.80786  0.22601  1.0000
  I   I150      1.0  0.91689  0.75695  0.95985  1.0000
  I   I151      1.0  0.86517  0.36828  0.61114  1.0000
  I   I152      1.0  0.28617  0.95093  0.46001  1.0000
  I   I153      1.0  0.24656  0.91282  0.96228  1.0000
  I   I154      1.0  0.48596  0.98066  0.29430  1.0000
  I   I155      1.0  0.21993  0.13901  0.10823  1.0000
  I   I156      1.0  0.21490  0.59263  0.58687  1.0000
  I   I157      1.0  0.77935  0.97195  0.67136  1.0000
  I   I158      1.0  0.00476  0.08466  0.73406  1.0000
  I   I159      1.0  0.70127  0.99123  0.51820  1.0000
  I   I160      1.0  0.74499  0.78763  0.84621  1.0000
  I   I161      1.0  0.29290  0.01337  0.65592  1.0000
  I   I162      1.0  0.79193  0.77727  0.04918  1.0000
  I   I163      1.0  0.56101  0.47903  0.00160  1.0000
  I   I164      1.0  0.91494  0.43599  0.05831  1.0000
  I   I165      1.0  0.19493  0.99079  0.27246  1.0000
  I   I166      1.0  0.76430  0.78327  0.36414  1.0000
  I   I167      1.0  0.46443  0.06305  0.54874  1.0000
  I   I168      1.0  0.33407  0.80866  0.00951  1.0000
  I   I169      1.0  0.59631  0.81912  0.61925  1.0000
  I   I170      1.0  0.55102  0.89490  0.67130  1.0000
  I   I171      1.0  0.77978  0.20497  0.58891  1.0000
  I   I172      1.0  0.58544  0.96017  0.89111  1.0000
  I   I173      1.0  0.06418  0.83788  0.05204  1.0000
  I   I174      1.0  0.47597  0.06110  0.90189  1.0000
  I   I175      1.0  0.17816  0.58879  0.92923  1.0000
  I   I176      1.0  0.89765  0.30844  0.83114  1.0000
  I   I177      1.0  0.79223  0.28936  0.82855  1.0000
  I   I178      1.0  0.24645  0.45443  0.56583  1.0000
  I   I179      1.0  0.60095  0.72232  0.66896  1.0000
  I   I180      1.0  0.90658  0.00897  0.94206  1.0000
  I   I181      1.0  0.22015  0.34016  0.38920  1.0000
  I   I182      1.0  0.52268  0.27986  0.95870  1.0000
  I   I183      1.0  0.80863  0.60864  0.24109  1.0000
  I   I184      1.0  0.50757  0.53185  0.23467  1.0000
  I   I185      1.0  0.52922  0.55282  0.73935  1.0000
  I   I186      1.0  0.06250  0.26099  0.23404  1.0000
  I   I187      1.0  0.33110  0.54170  0.01238  1.0000
  I   I188      1.0  0.90510  0.50267  0.88613  1.0000
  I   I189      1.0  0.31418  0.69372  0.61658  1.0000
  I   I190      1.0  0.68360  0.30600  0.24592  1.0000
  I   I191      1.0  0.99494  0.33867  0.75914  1.0000
  I   I192      1.0  0.67469  0.25126  0.11242  1.0000
  I   I193      1.0  0.12543  0.79719  0.09396  1.0000
  I   I194      1.0  0.95532  0.30317  0.76667  1.0000
  I   I195      1.0  0.58616  0.92002  0.19922  1.0000
  I   I196      1.0  0.79254  0.30119  0.21092  1.0000
  I   I197      1.0  0.56532  0.26640  0.42216  1.0000
  I   I198      1.0  0.95924  0.70997  0.86983  1.0000
  I   I199      1.0  0.85992  0.31674  0.56350  1.0000
  I   I200      1.0  0.07307  0.43610  0.75480  1.0000
  I   I201      1.0  0.26324  0.97124  0.15817  1.0000
  I   I202      1.0  0.26994  0.34780  0.24650  1.0000
  I   I203      1.0  0.41500  0.71729  0.82284  1.0000
  I   I204      1.0  0.18403  0.58761  0.69216  1.0000
  I   I205      1.0  0.13182  0.05907  0.23785  1.0000
  I   I206      1.0  0.04364  0.03364  0.64233  1.0000
  I   I207      1.0  0.74390  0.99962  0.58531  1.0000
  I   I208      1.0  0.87335  0.83837  0.55089  1.0000
  I   I209      1.0  0.32429  0.98763  0.54851  1.0000
  I   I210      1.0  0.80377  0.78220  0.86668  1.0000
  I   I211      1.0  0.69003  0.46115  0.92633  1.0000
  I   I212      1.0  0.12470  0.11698  0.84189  1.0000
  I   I213      1.0  0.46967  0.72042  0.81542  1.0000
  I   I214      1.0  0.82001  0.74330  0.29952  1.0000
  I   I215      1.0  0.42197  0.10648  0.64224  1.0000
  I   I216      1.0  0.28986  0.84288  0.90375  1.0000
  I   I217      1.0  0.58148  0.81953  0.73792  1.0000
  I   I218      1.0  0.31777  0.85205  0.61719  1.0000
  I   I219      1.0  0.82322  0.15341  0.59607  1.0000
  I   I220      1.0  0.72527  0.47251  0.54043  1.0000
  I   I221      1.0  0.03336  0.87592  0.97465  1.0000
  I   I222      1.0  0.53068  0.00342  0.81312  1.0000
  I   I223      1.0  0.12851  0.60697  0.00692  1.0000
  I   I224      1.0  0.94607  0.28815  0.90611  1.0000
  I   I225      1.0  0.10964  0.87663  0.43077  1.0000
  I   I226      1.0  0.30062  0.40614  0.48353  1.0000
  I   I227      1.0  0.66380  0.69485  0.71047  1.0000
  I   I228      1.0  0.86068  0.13894  0.99050  1.0000
  I   I229      1.0  0.24004  0.43667  0.38678  1.0000
  I   I230      1.0  0.40322  0.41326  0.08593  1.0000
  I   I231      1.0  0.78730  0.63526  0.14158  1.0000
  I   I232      1.0  0.91712  0.08730  0.64665  1.0000
  I   I233      1.0  0.47921  0.55016  0.66290  1.0000
  I   I234      1.0  0.99488  0.29865  0.34482  1.0000
  I   I235      1.0  0.45687  0.95918  0.18796  1.0000
  I   I236      1.0  0.88586  0.48851  0.78679  1.0000
  I   I237      1.0  0.35996  0.67296  0.70949  1.0000
  I   I238      1.0  0.67164  0.37264  0.27741  1.0000
  I   I239      1.0  0.22961  0.55742  0.21860  1.0000
  I   I240      1.0  0.72277  0.21332  0.19051  1.0000
  I   I241      1.0  0.91273  0.43480  0.20687  1.0000
  I   I242      1.0  0.73639  0.05688  0.82340  1.0000
  I   I243      1.0  0.61772  0.87564  0.27605  1.0000
  I   I244      1.0  0.84802  0.07434  0.41780  1.0000
  I   I245      1.0  0.45035  0.65032  0.19928  1.0000
  I   I246      1.0  0.92458  0.69272  0.92958  1.0000
  I   I247      1.0  0.80844  0.41041  0.54291  1.0000
  I   I248      1.0  0.28196  0.01438  0.41692  1.0000
  I   I249      1.0  0.21923  0.99012  0.05640  1.0000
  I   I250      1.0  0.30289  0.32750  0.15918  1.0000
  I   I251      1.0  0.17990  0.20136  0.11127  1.0000
  I   I252      1.0  0.20072  0.54769  0.60623  1.0000
  I   I253      1.0  0.01029  0.13796  0.21624  1.0000
  I   I254      1.0  0.96762  0.10498  0.62323  1.0000
  I   I255      1.0  0.75087  0.00559  0.45982  1.0000
  I   I256      1.0  0.63257  0.93881  0.80579  1.0000
  I   I257      1.0  0.25696  0.03840  0.57150  1.0000
  I   I258      1.0  0.73378  0.77255  0.06358  1.0000
  I   I259      1.0  0.63514  0.46105  0.89149  1.0000
  I   I260      1.0  0.84192  0.47559  0.07605  1.0000
  I   I261      1.0  0.24405  0.96087  0.37945  1.0000
  I   I262      1.0  0.76889  0.74065  0.24816  1.0000
  I   I263      1.0  0.42358  0.05593  0.62755  1.0000
  I   I264      1.0  0.28061  0.79924  0.96943  1.0000
  I   I265      1.0  0.52400  0.85792  0.69608  1.0000
  I   I266      1.0  0.39072  0.77047  0.51204  1.0000
  I   I267      1.0  0.85074  0.14420  0.68422  1.0000
  I   I268      1.0  0.70567  0.52182  0.60607  1.0000
  I   I269      1.0  0.97410  0.86099  0.14998  1.0000
  I   I270      1.0  0.55396  0.94168  0.80388  1.0000
  I   I271      1.0  0.11959  0.64509  0.89349  1.0000
  I   I272      1.0  0.86116  0.35977  0.89311  1.0000
  I   I273      1.0  0.11005  0.81912  0.44677  1.0000
  I   I274      1.0  0.31649  0.36917  0.56914  1.0000
  I   I275      1.0  0.61969  0.62791  0.77540  1.0000
  I   I276      1.0  0.87715  0.06347  0.87151  1.0000
  I   I277      1.0  0.24490  0.40999  0.50739  1.0000
  I   I278      1.0  0.38168  0.35403  0.05103  1.0000
  I   I279      1.0  0.87884  0.64788  0.27033  1.0000
  I   I280      1.0  0.52715  0.46785  0.21806  1.0000
  I   I281      1.0  0.41822  0.64683  0.61065  1.0000
  I   I282      1.0  0.96824  0.26228  0.40100  1.0000
  I   I283      1.0  0.43533  0.02193  0.24072  1.0000
  I   I284      1.0  0.84740  0.49809  0.70776  1.0000
  I   I285      1.0  0.27872  0.66834  0.55871  1.0000
  I   I286      1.0  0.62414  0.32279  0.27827  1.0000
  I   I287      1.0  0.27457  0.51058  0.31349  1.0000
  I   I288      1.0  0.72050  0.23435  0.02950  1.0000
  I   I289      1.0  0.94328  0.37512  0.17901  1.0000
  I   I290      1.0  0.00678  0.28317  0.68127  1.0000
  I   I291      1.0  0.71817  0.05872  0.94627  1.0000
  I   I292      1.0  0.87315  0.11875  0.40869  1.0000
  I   I293      1.0  0.40143  0.70681  0.24378  1.0000
  I   I294      1.0  0.96215  0.68271  0.00463  1.0000
  I   I295      1.0  0.85014  0.31059  0.68900  1.0000
  I   I296      1.0  0.10435  0.46970  0.80436  1.0000
  I   I297      1.0  0.18477  0.97013  0.99459  1.0000
  I   I298      1.0  0.60741  0.29472  0.43840  1.0000
  I   I299      1.0  0.94072  0.80064  0.38403  1.0000
  I   I300      1.0  0.15696  0.63580  0.62200  1.0000
  I   I301      1.0  0.74618  0.94787  0.45406  1.0000
  I   I302      1.0  0.11626  0.07671  0.14643  1.0000
  I   I303      1.0  0.27847  0.42219  0.90428  1.0000
  I   I304      1.0  0.75703  0.79865  0.96337  1.0000
  I   I305      1.0  0.87587  0.82588  0.43566  1.0000
  I   I306      1.0  0.48926  0.23586  0.97731  1.0000
  I   I307      1.0  0.61025  0.46356  0.08729  1.0000
  I   I308      1.0  0.12078  0.06523  0.75581  1.0000
  I   I309      1.0  0.22839  0.01913  0.29808  1.0000
  I   I310      1.0  0.51594  0.83377  0.40292  1.0000
  I   I311      1.0  0.52430  0.02758  0.51111  1.0000
  I   I312      1.0  0.03832  0.19666  0.11547  1.0000
  I   I313      1.0  0.78615  0.16510  0.68938  1.0000
  I   I314      1.0  0.59355  0.87349  0.73115  1.0000
  I   I315      1.0  0.28970  0.86068  0.52217  1.0000
  I   I316      1.0  0.52219  0.96144  0.91904  1.0000
  I   I317      1.0  0.70990  0.46958  0.38170  1.0000
  I   I318      1.0  0.00715  0.83686  0.97420  1.0000
  I   I319      1.0  0.73645  0.29501  0.80379  1.0000
  I   I320      1.0  0.70150  0.37941  0.01994  1.0000
  I   I321      1.0  0.87533  0.31047  0.97603  1.0000
  I   I322      1.0  0.35873  0.41505  0.62083  1.0000
  I   I323      1.0  0.69740  0.62848  0.77775  1.0000
  I   I324      1.0  0.91371  0.10852  0.94265  1.0000
  I   I325      1.0  0.19340  0.42681  0.45254  1.0000
  I   I326      1.0  0.53458  0.23004  0.02619  1.0000
  I   I327      1.0  0.82678  0.66658  0.17797  1.0000
  I   I328      1.0  0.30744  0.34611  0.86101  1.0000
  I   I329      1.0  0.46768  0.60974  0.72793  1.0000
  I   I330      1.0  0.00893  0.24935  0.29010  1.0000
  I   I331      1.0  0.32839  0.60998  0.55469  1.0000
  I   I332      1.0  0.62891  0.22714  0.48348  1.0000
  I   I333      1.0  0.84262  0.52952  0.83915  1.0000
  I   I334      1.0  0.70115  0.17005  0.03988  1.0000
  I   I335      1.0  0.62935  0.37040  0.34015  1.0000
  I   I336      1.0  0.25227  0.56654  0.34563  1.0000
  I   I337      1.0  0.08781  0.77913  0.00141  1.0000
  I   I338      1.0  0.02110  0.26867  0.79788  1.0000
  I   I339      1.0  0.74691  0.99622  0.87987  1.0000
  I   I340      1.0  0.83780  0.29546  0.12908  1.0000
  I   I341      1.0  0.58442  0.80219  0.34494  1.0000
  I   I342      1.0  0.95021  0.63366  0.01612  1.0000
  I   I343      1.0  0.80738  0.36018  0.61330  1.0000
  I   I344      1.0  0.14065  0.39784  0.81483  1.0000
  I   I345      1.0  0.26790  0.00721  0.07172  1.0000
  I   I346      1.0  0.43378  0.97641  0.33398  1.0000
  I   I347      1.0  0.22394  0.34967  0.18592  1.0000
  I   I348      1.0  0.25404  0.60608  0.63269  1.0000
  I   I349      1.0  0.77852  0.94059  0.56677  1.0000
  I   I350      1.0  0.02601  0.11968  0.32589  1.0000
  I   I351      1.0  0.93985  0.05129  0.54490  1.0000
  I   I352      1.0  0.78450  0.71845  0.05067  1.0000
  I   I353      1.0  0.69138  0.90591  0.87699  1.0000
  I   I354      1.0  0.48687  0.18521  0.01607  1.0000
  I   I355      1.0  0.60049  0.49726  0.98433  1.0000
  I   I356      1.0  0.88502  0.49882  0.01207  1.0000
  I   I357      1.0  0.49122  0.66366  0.76962  1.0000
  I   I358      1.0  0.34257  0.78075  0.89548  1.0000
  I   I359      1.0  0.48746  0.01428  0.61979  1.0000
  I   I360      1.0  0.98509  0.20964  0.04508  1.0000
  I   I361      1.0  0.81852  0.16575  0.80280  1.0000
  I   I362      1.0  0.64252  0.81930  0.68009  1.0000
  I   I363      1.0  0.36825  0.72729  0.56905  1.0000
  I   I364      1.0  0.48380  0.01476  0.97889  1.0000
  I   I365      1.0  0.65717  0.55705  0.52223  1.0000
  I   I366      1.0  0.01913  0.82338  0.09419  1.0000
  I   I367      1.0  0.73126  0.36199  0.78934  1.0000
  I   I368      1.0  0.70439  0.39167  0.14229  1.0000
  I   I369      1.0  0.83971  0.36203  0.00346  1.0000
  I   I370      1.0  0.37760  0.34686  0.60627  1.0000
  I   I371      1.0  0.61058  0.74055  0.78131  1.0000
  I   I372      1.0  0.85765  0.04272  0.00939  1.0000
  I   I373      1.0  0.28034  0.37329  0.41108  1.0000
  I   I374      1.0  0.40152  0.39047  0.98348  1.0000
  I   I375      1.0  0.86789  0.61029  0.22413  1.0000
  I   I376      1.0  0.45525  0.52131  0.26067  1.0000
  I   I377      1.0  0.46097  0.67007  0.61637  1.0000
  I   I378      1.0  0.03357  0.25437  0.43192  1.0000
  I   I379      1.0  0.32654  0.64922  0.75101  1.0000
  I   I380      1.0  0.31416  0.48388  0.06409  1.0000
  I   I381      1.0  0.81044  0.56973  0.74081  1.0000
  I   I382      1.0  0.68647  0.21528  0.96673  1.0000
  I   I383      1.0  0.67334  0.31119  0.38843  1.0000
  I   I384      1.0  0.30187  0.50244  0.40293  1.0000
