data_image0
_chemical_formula_structural       Ti96I384
_chemical_formula_sum              "Ti96 I384"
_cell_length_a       74.1535
_cell_length_b       74.0987
_cell_length_c       36.2651
_cell_angle_alpha    88.7757
_cell_angle_beta     88.7757
_cell_angle_gamma    62.1586

_space_group_name_H-M_alt    "P 1"
_space_group_IT_number       1

loop_
  _space_group_symop_operation_xyz
  'x, y, z'

loop_
  _atom_site_type_symbol
  _atom_site_label
  _atom_site_symmetry_multiplicity
  _atom_site_fract_x
  _atom_site_fract_y
  _atom_site_fract_z
  _atom_site_occupancy
  Ti  Ti1       1.0  0.79075  0.23221  0.88187  1.0000
  Ti  Ti2       1.0  0.48821  0.67500  0.53003  1.0000
  Ti  Ti3       1.0  0.14191  0.02516  0.13654  1.0000
  Ti  Ti4       1.0  0.06430  0.26766  0.95008  1.0000
  Ti  Ti5       1.0  0.30858  0.00142  0.58576  1.0000
  Ti  Ti6       1.0  0.42600  0.36644  0.44938  1.0000
  Ti  Ti7       1.0  0.57130  0.45394  0.77809  1.0000
  Ti  Ti8       1.0  0.28844  0.63497  0.20792  1.0000
  Ti  Ti9       1.0  0.25962  0.28228  0.56155  1.0000
  Ti  Ti10      1.0  0.61119  0.70375  0.30978  1.0000
  Ti  Ti11      1.0  0.23649  0.11926  0.30015  1.0000
  Ti  Ti12      1.0  0.88500  0.09289  0.71503  1.0000
  Ti  Ti13      1.0  0.85792  0.80244  0.48515  1.0000
  Ti  Ti14      1.0  0.04747  0.27688  0.02591  1.0000
  Ti  Ti15      1.0  0.83017  0.64453  0.70507  1.0000
  Ti  Ti16      1.0  0.12949  0.46339  0.48383  1.0000
  Ti  Ti17      1.0  0.07525  0.06609  0.49206  1.0000
  Ti  Ti18      1.0  0.15230  0.31242  0.81284  1.0000
  Ti  Ti19      1.0  0.03364  0.94732  0.02202  1.0000
  Ti  Ti20      1.0  0.20191  0.57879  0.96107  1.0000
  Ti  Ti21      1.0  0.34585  0.60048  0.26745  1.0000
  Ti  Ti22      1.0  0.90794  0.29779  0.58866  1.0000
  Ti  Ti23      1.0  0.97565  0.91511  0.37843  1.0000
  Ti  Ti24      1.0  0.68004  0.25386  0.45172  1.0000
  Ti  Ti25      1.0  0.56651  0.57083  0.37976  1.0000
  Ti  Ti26      1.0  0.67766  0.97659  0.10128  1.0000
  Ti  Ti27      1.0  0.56161  0.38655  0.28483  1.0000
  Ti  Ti28      1.0  0.31362  0.10913  0.61481  1.0000
  Ti  Ti29      1.0  0.35222  0.75717  0.87310  1.0000
  Ti  Ti30      1.0  0.49447  0.85681  0.53889  1.0000
  Ti  Ti31      1.0  0.21232  0.80011  0.42105  1.0000
  Ti  Ti32      1.0  0.56108  0.71564  0.89902  1.0000
  Ti  Ti33      1.0  0.46291  0.53030  0.11269  1.0000
  Ti  Ti34      1.0  0.56109  0.58329  0.67949  1.0000
  Ti  Ti35      1.0  0.92716  0.61113  0.40895  1.0000
  Ti  Ti36      1.0  0.63182  0.25008  0.47901  1.0000
  Ti  Ti37      1.0  0.85619  0.79052  0.77534  1.0000
  Ti  Ti38      1.0  0.38858  0.20816  0.68871  1.0000
  Ti  Ti39      1.0  0.84208  0.65363  0.99824  1.0000
  Ti  Ti40      1.0  0.56141  0.75996  0.40406  1.0000
  Ti  Ti41      1.0  0.89816  0.42312  0.11127  1.0000
  Ti  Ti42      1.0  0.02078  0.42236  0.15294  1.0000
  Ti  Ti43      1.0  0.84738  0.88806  0.12733  1.0000
  Ti  Ti44      1.0  0.85037  0.43257  0.08469  1.0000
  Ti  Ti45      1.0  0.28333  0.19773  0.41179  1.0000
  Ti  Ti46      1.0  0.49131  0.99768  0.17764  1.0000
  Ti  Ti47      1.0  0.18724  0.93835  0.81383  1.0000
  Ti  Ti48      1.0  0.10259  0.06693  0.91716  1.0000
  Ti  Ti49      1.0  0.86880  0.91274  0.08130  1.0000
  Ti  Ti50      1.0  0.13460  0.13018  0.41885  1.0000
  Ti  Ti51      1.0  0.44233  0.66545  0.55836  1.0000
  Ti  Ti52      1.0  0.82852  0.43666  0.63280  1.0000
  Ti  Ti53      1.0  0.09046  0.81483  0.37486  1.0000
  Ti  Ti54      1.0  0.69297  0.98927  0.55530  1.0000
  Ti  Ti55      1.0  0.58013  0.68458  0.93777  1.0000
  Ti  Ti56      1.0  0.41126  0.97628  0.29138  1.0000
  Ti  Ti57      1.0  0.29054  0.29921  0.54838  1.0000
  Ti  Ti58      1.0  0.35753  0.67889  0.05587  1.0000
  Ti  Ti59      1.0  0.47219  0.45118  0.88389  1.0000
  Ti  Ti60      1.0  0.92676  0.08194  0.69953  1.0000
  Ti  Ti61      1.0  0.78476  0.73871  0.83139  1.0000
  Ti  Ti62      1.0  0.85852  0.74696  0.53077  1.0000
  Ti  Ti63      1.0  0.21821  0.56802  0.05926  1.0000
  Ti  Ti64      1.0  0.18277  0.28049  0.89058  1.0000
  Ti  Ti65      1.0  0.20503  0.76586  0.60138  1.0000
  Ti  Ti66      1.0  0.24634  0.47157  0.36651  1.0000
  Ti  Ti67      1.0  0.05843  0.30495  0.43845  1.0000
  Ti  Ti68      1.0  0.66030  0.06599  0.25271  1.0000
  Ti  Ti69      1.0  0.71177  0.93850  0.04971  1.0000
  Ti  Ti70      1.0  0.09756  0.31625  0.42105  1.0000
  Ti  Ti71      1.0  0.94756  0.89060  0.39745  1.0000
  Ti  Ti72      1.0  0.23781  0.92028  0.84728  1.0000
  Ti  Ti73      1.0  0.58557  0.36880  0.35549  1.0000
  Ti  Ti74      1.0  0.63344  0.53557  0.38472  1.0000
  Ti  Ti75      1.0  0.41062  0.09859  0.83941  1.0000
  Ti  Ti76      1.0  0.36723  0.08703  0.50356  1.0000
  Ti  Ti77      1.0  0.87322  0.61507  0.67160  1.0000
  Ti  Ti78      1.0  0.34280  0.80317  0.88745  1.0000
  Ti  Ti79      1.0  0.45090  0.45443  0.60514  1.0000
  Ti  Ti80      1.0  0.16821  0.15205  0.15409  1.0000
  Ti  Ti81      1.0  0.58435  0.74964  0.80907  1.0000
  Ti  Ti82      1.0  0.94030  0.35261  0.35434  1.0000
  Ti  Ti83      1.0  0.02656  0.50188  0.72936  1.0000
  Ti  Ti84      1.0  0.62586  0.19730  0.50836  1.0000
  Ti  Ti85      1.0  0.86087  0.81660  0.71544  1.0000
  Ti  Ti86      1.0  0.56645  0.50187  0.87847  1.0000
  Ti  Ti87      1.0  0.30643  0.22119  0.31953  1.0000
  Ti  Ti88      1.0  0.77314  0.69126  0.19993  1.0000
  Ti  Ti89      1.0  0.40167  0.43336  0.14757  1.0000
  Ti  Ti90      1.0  0.05444  0.41120  0.26385  1.0000
  Ti  Ti91      1.0  0.21024  0.79549  0.16296  1.0000
  Ti  Ti92      1.0  0.74114  0.84911  0.84663  1.0000
  Ti  Ti93      1.0  0.82763  0.17231  0.47958  1.0000
  Ti  Ti94      1.0  0.10965  0.04566  0.01761  1.0000
  Ti  Ti95      1.0  0.90947  0.53664  0.86019  1.0000
  Ti  Ti96      1.0  0.95358  0.30691  0.59186  1.0000
  I   I1        1.0  0.27538  0.91581  0.83217  1.0000
  I   I2        1.0  0.45137  0.69952  0.56284  1.0000
  I   I3        1.0  0.88115  0.86902  0.08407  1.0000
  I   I4        1.0  0.12000  0.77987  0.37918  1.0000
  I   I5        1.0  0.44932  0.38227  0.43566  1.0000
  I   I6        1.0  0.72395  0.95175  0.54594  1.0000
  I   I7        1.0  0.28927  0.62231  0.13225  1.0000
  I   I8        1.0  0.38936  0.01663  0.28458  1.0000
  I   I9        1.0  0.29472  0.32862  0.51352  1.0000
  I   I10       1.0  0.64231  0.67112  0.33290  1.0000
  I   I11       1.0  0.19698  0.13115  0.30628  1.0000
  I   I12       1.0  0.29298  0.03257  0.62657  1.0000
  I   I13       1.0  0.86499  0.82553  0.53122  1.0000
  I   I14       1.0  0.24779  0.57436  0.08591  1.0000
  I   I15       1.0  0.83006  0.62074  0.65708  1.0000
  I   I16       1.0  0.58180  0.69141  0.31492  1.0000
  I   I17       1.0  0.26972  0.48527  0.40188  1.0000
  I   I18       1.0  0.13964  0.29957  0.87046  1.0000
  I   I19       1.0  0.19365  0.55573  0.00609  1.0000
  I   I20       1.0  0.25109  0.09465  0.34764  1.0000
  I   I21       1.0  0.27427  0.60786  0.23425  1.0000
  I   I22       1.0  0.94663  0.91786  0.44556  1.0000
  I   I23       1.0  0.93984  0.89247  0.32264  1.0000
  I   I24       1.0  0.06918  0.26812  0.46412  1.0000
  I   I25       1.0  0.53677  0.59980  0.41752  1.0000
  I   I26       1.0  0.44069  0.09644  0.87644  1.0000
  I   I27       1.0  0.53619  0.41954  0.24091  1.0000
  I   I28       1.0  0.35870  0.08652  0.60673  1.0000
  I   I29       1.0  0.33002  0.83695  0.83916  1.0000
  I   I30       1.0  0.48940  0.88920  0.50427  1.0000
  I   I31       1.0  0.19198  0.13979  0.09662  1.0000
  I   I32       1.0  0.55510  0.73817  0.79173  1.0000
  I   I33       1.0  0.43783  0.49169  0.64029  1.0000
  I   I34       1.0  0.89955  0.63526  0.36540  1.0000
  I   I35       1.0  0.59165  0.21657  0.54403  1.0000
  I   I36       1.0  0.52271  0.59303  0.70148  1.0000
  I   I37       1.0  0.88396  0.81732  0.66354  1.0000
  I   I38       1.0  0.83556  0.66329  0.92877  1.0000
  I   I39       1.0  0.88705  0.75161  0.78522  1.0000
  I   I40       1.0  0.87342  0.46268  0.10117  1.0000
  I   I41       1.0  0.05486  0.38295  0.31375  1.0000
  I   I42       1.0  0.57614  0.78442  0.40375  1.0000
  I   I43       1.0  0.32368  0.70822  0.02284  1.0000
  I   I44       1.0  0.83168  0.41063  0.08491  1.0000
  I   I45       1.0  0.29691  0.21860  0.25375  1.0000
  I   I46       1.0  0.87950  0.52865  0.88409  1.0000
  I   I47       1.0  0.18187  0.90702  0.78744  1.0000
  I   I48       1.0  0.08582  0.05270  0.87021  1.0000
  I   I49       1.0  0.85829  0.86037  0.17861  1.0000
  I   I50       1.0  0.47390  0.68597  0.46457  1.0000
  I   I51       1.0  0.51740  0.68339  0.54662  1.0000
  I   I52       1.0  0.17333  0.11600  0.17192  1.0000
  I   I53       1.0  0.07725  0.81334  0.31131  1.0000
  I   I54       1.0  0.65989  0.98407  0.57749  1.0000
  I   I55       1.0  0.57214  0.46824  0.70897  1.0000
  I   I56       1.0  0.34626  0.57092  0.22148  1.0000
  I   I57       1.0  0.88182  0.56261  0.81052  1.0000
  I   I58       1.0  0.59462  0.74683  0.31633  1.0000
  I   I59       1.0  0.48346  0.46216  0.81858  1.0000
  I   I60       1.0  0.95843  0.07593  0.74509  1.0000
  I   I61       1.0  0.88608  0.72743  0.48309  1.0000
  I   I62       1.0  0.87827  0.72770  0.59401  1.0000
  I   I63       1.0  0.19735  0.60577  0.03128  1.0000
  I   I64       1.0  0.14062  0.42394  0.48922  1.0000
  I   I65       1.0  0.23499  0.73183  0.62103  1.0000
  I   I66       1.0  0.25958  0.43376  0.38848  1.0000
  I   I67       1.0  0.05918  0.93706  0.07484  1.0000
  I   I68       1.0  0.16726  0.61037  0.94800  1.0000
  I   I69       1.0  0.73237  0.93977  0.10736  1.0000
  I   I70       1.0  0.12218  0.31250  0.36512  1.0000
  I   I71       1.0  0.95961  0.95040  0.40848  1.0000
  I   I72       1.0  0.16642  0.96547  0.76172  1.0000
  I   I73       1.0  0.54829  0.40643  0.36039  1.0000
  I   I74       1.0  0.67397  0.95472  0.16054  1.0000
  I   I75       1.0  0.63862  0.00302  0.10625  1.0000
  I   I76       1.0  0.88262  0.60803  0.59754  1.0000
  I   I77       1.0  0.85765  0.65752  0.68422  1.0000
  I   I78       1.0  0.75536  0.23929  0.91771  1.0000
  I   I79       1.0  0.47142  0.54369  0.04279  1.0000
  I   I80       1.0  0.23217  0.81054  0.36673  1.0000
  I   I81       1.0  0.52183  0.74377  0.90370  1.0000
  I   I82       1.0  0.97123  0.31348  0.36863  1.0000
  I   I83       1.0  0.02911  0.47855  0.67144  1.0000
  I   I84       1.0  0.63026  0.21450  0.43658  1.0000
  I   I85       1.0  0.85680  0.77185  0.70544  1.0000
  I   I86       1.0  0.20941  0.49540  0.38894  1.0000
  I   I87       1.0  0.82719  0.67828  0.05555  1.0000
  I   I88       1.0  0.53165  0.76412  0.34870  1.0000
  I   I89       1.0  0.87156  0.41382  0.14607  1.0000
  I   I90       1.0  0.02596  0.43988  0.29760  1.0000
  I   I91       1.0  0.22887  0.81711  0.18482  1.0000
  I   I92       1.0  0.76590  0.85719  0.87947  1.0000
  I   I93       1.0  0.85144  0.43631  0.01028  1.0000
  I   I94       1.0  0.09037  0.03283  0.05636  1.0000
  I   I95       1.0  0.52671  0.98714  0.21318  1.0000
  I   I96       1.0  0.99049  0.28390  0.61506  1.0000
  I   I97       1.0  0.15100  0.00310  0.20093  1.0000
  I   I98       1.0  0.81734  0.19573  0.89614  1.0000
  I   I99       1.0  0.45820  0.62483  0.54040  1.0000
  I   I100      1.0  0.00994  0.30521  0.00936  1.0000
  I   I101      1.0  0.74746  0.72007  0.15495  1.0000
  I   I102      1.0  0.32527  0.96987  0.63236  1.0000
  I   I103      1.0  0.54447  0.49017  0.83132  1.0000
  I   I104      1.0  0.53696  0.70944  0.96778  1.0000
  I   I105      1.0  0.25262  0.25513  0.52813  1.0000
  I   I106      1.0  0.94512  0.07880  0.62944  1.0000
  I   I107      1.0  0.61106  0.71377  0.24071  1.0000
  I   I108      1.0  0.86381  0.12267  0.75644  1.0000
  I   I109      1.0  0.80336  0.64615  0.76561  1.0000
  I   I110      1.0  0.81668  0.76236  0.52483  1.0000
  I   I111      1.0  0.24540  0.53214  0.06749  1.0000
  I   I112      1.0  0.17069  0.32633  0.85785  1.0000
  I   I113      1.0  0.22694  0.78234  0.58169  1.0000
  I   I114      1.0  0.06835  0.06208  0.56532  1.0000
  I   I115      1.0  0.02941  0.32969  0.47006  1.0000
  I   I116      1.0  0.07046  0.35333  0.44606  1.0000
  I   I117      1.0  0.62059  0.08071  0.26738  1.0000
  I   I118      1.0  0.88452  0.31674  0.64059  1.0000
  I   I119      1.0  0.12584  0.31331  0.46467  1.0000
  I   I120      1.0  0.22404  0.89240  0.84029  1.0000
  I   I121      1.0  0.61392  0.33436  0.32672  1.0000
  I   I122      1.0  0.55703  0.59496  0.31654  1.0000
  I   I123      1.0  0.41765  0.07396  0.78465  1.0000
  I   I124      1.0  0.47935  0.85773  0.60562  1.0000
  I   I125      1.0  0.30798  0.07773  0.61200  1.0000
  I   I126      1.0  0.31488  0.79375  0.85877  1.0000
  I   I127      1.0  0.49481  0.52129  0.15748  1.0000
  I   I128      1.0  0.04644  0.24692  0.98435  1.0000
  I   I129      1.0  0.60014  0.73519  0.74342  1.0000
  I   I130      1.0  0.67857  0.21767  0.47109  1.0000
  I   I131      1.0  0.95828  0.36448  0.30743  1.0000
  I   I132      1.0  0.91126  0.62030  0.47551  1.0000
  I   I133      1.0  0.87852  0.63219  0.01303  1.0000
  I   I134      1.0  0.36083  0.21484  0.74331  1.0000
  I   I135      1.0  0.25585  0.47033  0.29870  1.0000
  I   I136      1.0  0.03556  0.44030  0.20627  1.0000
  I   I137      1.0  0.79194  0.46225  0.62811  1.0000
  I   I138      1.0  0.42648  0.40936  0.19098  1.0000
  I   I139      1.0  0.17525  0.80680  0.13285  1.0000
  I   I140      1.0  0.72384  0.83114  0.89207  1.0000
  I   I141      1.0  0.84023  0.17986  0.41813  1.0000
  I   I142      1.0  0.13229  0.06499  0.97652  1.0000
  I   I143      1.0  0.10580  0.04697  0.16576  1.0000
  I   I144      1.0  0.93682  0.34241  0.62513  1.0000
  I   I145      1.0  0.80183  0.25571  0.91691  1.0000
  I   I146      1.0  0.50682  0.63772  0.49542  1.0000
  I   I147      1.0  0.15148  0.99963  0.07914  1.0000
  I   I148      1.0  0.84928  0.45474  0.65420  1.0000
  I   I149      1.0  0.34584  0.99847  0.56608  1.0000
  I   I150      1.0  0.41728  0.36045  0.51584  1.0000
  I   I151      1.0  0.55855  0.66240  0.93317  1.0000
  I   I152      1.0  0.33311  0.62338  0.19914  1.0000
  I   I153      1.0  0.26518  0.30561  0.61515  1.0000
  I   I154      1.0  0.87942  0.91541  0.15890  1.0000
  I   I155      1.0  0.26975  0.12873  0.29537  1.0000
  I   I156      1.0  0.90940  0.06535  0.76563  1.0000
  I   I157      1.0  0.80846  0.67457  0.65853  1.0000
  I   I158      1.0  0.24662  0.55740  0.96719  1.0000
  I   I159      1.0  0.81264  0.70308  0.82155  1.0000
  I   I160      1.0  0.19618  0.27435  0.82158  1.0000
  I   I161      1.0  0.04874  0.06055  0.45097  1.0000
  I   I162      1.0  0.20523  0.23908  0.89586  1.0000
  I   I163      1.0  0.02337  0.91914  0.03120  1.0000
  I   I164      1.0  0.67820  0.02526  0.24398  1.0000
  I   I165      1.0  0.36167  0.62526  0.29378  1.0000
  I   I166      1.0  0.90857  0.32742  0.55079  1.0000
  I   I167      1.0  0.97469  0.91587  0.30777  1.0000
  I   I168      1.0  0.68977  0.23782  0.38267  1.0000
  I   I169      1.0  0.59636  0.53730  0.34950  1.0000
  I   I170      1.0  0.64586  0.55268  0.33251  1.0000
  I   I171      1.0  0.53426  0.37429  0.30033  1.0000
  I   I172      1.0  0.27351  0.13059  0.61554  1.0000
  I   I173      1.0  0.39139  0.73266  0.87848  1.0000
  I   I174      1.0  0.48077  0.83618  0.50706  1.0000
  I   I175      1.0  0.23286  0.77146  0.46410  1.0000
  I   I176      1.0  0.56904  0.68329  0.85207  1.0000
  I   I177      1.0  0.44814  0.46153  0.53400  1.0000
  I   I178      1.0  0.90943  0.36034  0.31189  1.0000
  I   I179      1.0  0.04210  0.52275  0.71223  1.0000
  I   I180      1.0  0.60688  0.17517  0.48518  1.0000
  I   I181      1.0  0.83816  0.85543  0.71937  1.0000
  I   I182      1.0  0.59521  0.47322  0.81915  1.0000
  I   I183      1.0  0.25953  0.18057  0.41034  1.0000
  I   I184      1.0  0.76680  0.71165  0.25933  1.0000
  I   I185      1.0  0.38017  0.46539  0.19109  1.0000
  I   I186      1.0  0.99029  0.45670  0.14030  1.0000
  I   I187      1.0  0.71164  0.88591  0.83490  1.0000
  I   I188      1.0  0.81515  0.46675  0.09853  1.0000
  I   I189      1.0  0.24798  0.23208  0.43953  1.0000
  I   I190      1.0  0.48132  0.03581  0.20118  1.0000
  I   I191      1.0  0.17446  0.10820  0.42626  1.0000
  I   I192      1.0  0.12137  0.05718  0.07654  1.0000
  I   I193      1.0  0.33789  0.73151  0.88504  1.0000
  I   I194      1.0  0.12311  0.14283  0.35141  1.0000
  I   I195      1.0  0.17093  0.03373  0.14724  1.0000
  I   I196      1.0  0.07826  0.25133  0.89142  1.0000
  I   I197      1.0  0.35273  0.70259  0.11139  1.0000
  I   I198      1.0  0.39110  0.39290  0.43329  1.0000
  I   I199      1.0  0.58467  0.70680  0.98590  1.0000
  I   I200      1.0  0.38386  0.97528  0.33648  1.0000
  I   I201      1.0  0.22246  0.30826  0.56135  1.0000
  I   I202      1.0  0.44788  0.43332  0.88305  1.0000
  I   I203      1.0  0.66845  0.95327  0.05005  1.0000
  I   I204      1.0  0.94499  0.04224  0.69354  1.0000
  I   I205      1.0  0.84678  0.77540  0.45551  1.0000
  I   I206      1.0  0.04783  0.31244  0.05400  1.0000
  I   I207      1.0  0.85844  0.62169  0.75874  1.0000
  I   I208      1.0  0.15886  0.46521  0.51223  1.0000
  I   I209      1.0  0.10954  0.05944  0.45872  1.0000
  I   I210      1.0  0.48729  0.41693  0.59875  1.0000
  I   I211      1.0  0.08391  0.30625  0.49075  1.0000
  I   I212      1.0  0.21363  0.55617  0.90293  1.0000
  I   I213      1.0  0.70150  0.91350  0.00828  1.0000
  I   I214      1.0  0.94835  0.27763  0.55077  1.0000
  I   I215      1.0  0.01114  0.91010  0.39407  1.0000
  I   I216      1.0  0.71122  0.23868  0.49546  1.0000
  I   I217      1.0  0.53901  0.55733  0.35822  1.0000
  I   I218      1.0  0.38177  0.13397  0.82869  1.0000
  I   I219      1.0  0.59568  0.39438  0.30683  1.0000
  I   I220      1.0  0.90743  0.61677  0.68568  1.0000
  I   I221      1.0  0.37907  0.78470  0.85382  1.0000
  I   I222      1.0  0.32775  0.10911  0.52161  1.0000
  I   I223      1.0  0.20640  0.83059  0.47415  1.0000
  I   I224      1.0  0.56728  0.75147  0.88020  1.0000
  I   I225      1.0  0.43498  0.56468  0.13606  1.0000
  I   I226      1.0  0.92444  0.38357  0.40141  1.0000
  I   I227      1.0  0.95834  0.61918  0.43097  1.0000
  I   I228      1.0  0.64564  0.22314  0.53469  1.0000
  I   I229      1.0  0.05549  0.10547  0.48979  1.0000
  I   I230      1.0  0.42245  0.19522  0.71852  1.0000
  I   I231      1.0  0.83609  0.62058  0.00547  1.0000
  I   I232      1.0  0.05709  0.25946  0.08764  1.0000
  I   I233      1.0  0.92371  0.43774  0.07872  1.0000
  I   I234      1.0  0.00792  0.39790  0.12401  1.0000
  I   I235      1.0  0.83323  0.93872  0.04982  1.0000
  I   I236      1.0  0.81536  0.20431  0.52973  1.0000
  I   I237      1.0  0.22726  0.75802  0.18460  1.0000
  I   I238      1.0  0.91887  0.51288  0.79423  1.0000
  I   I239      1.0  0.95955  0.32355  0.52782  1.0000
  I   I240      1.0  0.12956  0.06464  0.86930  1.0000
  I   I241      1.0  0.78128  0.24391  0.81604  1.0000
  I   I242      1.0  0.42432  0.67253  0.62213  1.0000
  I   I243      1.0  0.51277  0.97917  0.11394  1.0000
  I   I244      1.0  0.80860  0.68305  0.18279  1.0000
  I   I245      1.0  0.06052  0.81634  0.41928  1.0000
  I   I246      1.0  0.43761  0.32922  0.42296  1.0000
  I   I247      1.0  0.54193  0.44339  0.76390  1.0000
  I   I248      1.0  0.26050  0.66755  0.23766  1.0000
  I   I249      1.0  0.26350  0.29802  0.50065  1.0000
  I   I250      1.0  0.50835  0.42988  0.91529  1.0000
  I   I251      1.0  0.24157  0.10422  0.23444  1.0000
  I   I252      1.0  0.86158  0.07701  0.73037  1.0000
  I   I253      1.0  0.81835  0.83075  0.49063  1.0000
  I   I254      1.0  0.07404  0.29824  0.95426  1.0000
  I   I255      1.0  0.74944  0.74231  0.83525  1.0000
  I   I256      1.0  0.18552  0.77840  0.66486  1.0000
  I   I257      1.0  0.81983  0.81495  0.74041  1.0000
  I   I258      1.0  0.11296  0.34318  0.80445  1.0000
  I   I259      1.0  0.05810  0.32866  0.37776  1.0000
  I   I260      1.0  0.68969  0.07090  0.28097  1.0000
  I   I261      1.0  0.35220  0.58564  0.33418  1.0000
  I   I262      1.0  0.89964  0.26812  0.57687  1.0000
  I   I263      1.0  0.98723  0.86938  0.39660  1.0000
  I   I264      1.0  0.63247  0.27040  0.41772  1.0000
  I   I265      1.0  0.59874  0.57752  0.40702  1.0000
  I   I266      1.0  0.69604  0.98696  0.04369  1.0000
  I   I267      1.0  0.59372  0.38513  0.41078  1.0000
  I   I268      1.0  0.32125  0.12250  0.67085  1.0000
  I   I269      1.0  0.34494  0.82399  0.93990  1.0000
  I   I270      1.0  0.36227  0.09481  0.43082  1.0000
  I   I271      1.0  0.18700  0.79248  0.38570  1.0000
  I   I272      1.0  0.61566  0.73842  0.85388  1.0000
  I   I273      1.0  0.44494  0.50707  0.12767  1.0000
  I   I274      1.0  0.58117  0.54369  0.69951  1.0000
  I   I275      1.0  0.93475  0.57368  0.39454  1.0000
  I   I276      1.0  0.65070  0.16667  0.54550  1.0000
  I   I277      1.0  0.92175  0.34062  0.42196  1.0000
  I   I278      1.0  0.36532  0.24414  0.65467  1.0000
  I   I279      1.0  0.28481  0.19856  0.48925  1.0000
  I   I280      1.0  0.82570  0.41166  0.68052  1.0000
  I   I281      1.0  0.93032  0.39140  0.14482  1.0000
  I   I282      1.0  0.04927  0.38973  0.20593  1.0000
  I   I283      1.0  0.82741  0.87914  0.07000  1.0000
  I   I284      1.0  0.81096  0.15154  0.43805  1.0000
  I   I285      1.0  0.30974  0.21545  0.39625  1.0000
  I   I286      1.0  0.92795  0.55582  0.81694  1.0000
  I   I287      1.0  0.16332  0.94082  0.86881  1.0000
  I   I288      1.0  0.07175  0.09941  0.91357  1.0000
  I   I289      1.0  0.88017  0.89052  0.01493  1.0000
  I   I290      1.0  0.09918  0.13274  0.44905  1.0000
  I   I291      1.0  0.47856  0.65552  0.58810  1.0000
  I   I292      1.0  0.83888  0.41806  0.56797  1.0000
  I   I293      1.0  0.10287  0.84086  0.37231  1.0000
  I   I294      1.0  0.69049  0.01237  0.49871  1.0000
  I   I295      1.0  0.60051  0.41537  0.79194  1.0000
  I   I296      1.0  0.41583  0.96058  0.22781  1.0000
  I   I297      1.0  0.30351  0.25897  0.56704  1.0000
  I   I298      1.0  0.39214  0.67558  0.02745  1.0000
  I   I299      1.0  0.11073  0.48009  0.41657  1.0000
  I   I300      1.0  0.85746  0.14468  0.52107  1.0000
  I   I301      1.0  0.77822  0.76623  0.77477  1.0000
  I   I302      1.0  0.88533  0.81096  0.43607  1.0000
  I   I303      1.0  0.58831  0.71629  0.39567  1.0000
  I   I304      1.0  0.17512  0.31469  0.75785  1.0000
  I   I305      1.0  0.10166  0.48205  0.53012  1.0000
  I   I306      1.0  0.57691  0.47397  0.92876  1.0000
  I   I307      1.0  0.00353  0.98086  0.04764  1.0000
  I   I308      1.0  0.20124  0.57961  0.12016  1.0000
  I   I309      1.0  0.30478  0.62465  0.28172  1.0000
  I   I310      1.0  0.82036  0.91790  0.16321  1.0000
  I   I311      1.0  0.90462  0.91812  0.40884  1.0000
  I   I312      1.0  0.24794  0.91891  0.91580  1.0000
  I   I313      1.0  0.56252  0.35579  0.38585  1.0000
  I   I314      1.0  0.65411  0.54647  0.43415  1.0000
  I   I315      1.0  0.39808  0.08645  0.89393  1.0000
  I   I316      1.0  0.38789  0.04878  0.50572  1.0000
  I   I317      1.0  0.39355  0.09898  0.52359  1.0000
  I   I318      1.0  0.34764  0.76711  0.93925  1.0000
  I   I319      1.0  0.48284  0.44982  0.65444  1.0000
  I   I320      1.0  0.02948  0.29574  0.91165  1.0000
  I   I321      1.0  0.60132  0.69324  0.87433  1.0000
  I   I322      1.0  0.57837  0.59266  0.72819  1.0000
  I   I323      1.0  0.04570  0.48237  0.79549  1.0000
  I   I324      1.0  0.59742  0.28110  0.48459  1.0000
  I   I325      1.0  0.83957  0.78261  0.83953  1.0000
  I   I326      1.0  0.59977  0.50918  0.87232  1.0000
  I   I327      1.0  0.28461  0.26015  0.32533  1.0000
  I   I328      1.0  0.55189  0.76273  0.47734  1.0000
  I   I329      1.0  0.37750  0.42015  0.11850  1.0000
  I   I330      1.0  0.09307  0.39679  0.24772  1.0000
  I   I331      1.0  0.27955  0.20906  0.34356  1.0000
  I   I332      1.0  0.35858  0.64246  0.05663  1.0000
  I   I333      1.0  0.90367  0.40228  0.05277  1.0000
  I   I334      1.0  0.11541  0.02556  0.93742  1.0000
  I   I335      1.0  0.47071  0.98525  0.21958  1.0000
  I   I336      1.0  0.93790  0.28946  0.64784  1.0000
  I   I337      1.0  0.88983  0.93077  0.06305  1.0000
  I   I338      1.0  0.13137  0.16459  0.43700  1.0000
  I   I339      1.0  0.41551  0.68352  0.50897  1.0000
  I   I340      1.0  0.18307  0.15945  0.21175  1.0000
  I   I341      1.0  0.27483  0.00177  0.57448  1.0000
  I   I342      1.0  0.71488  0.99831  0.59608  1.0000
  I   I343      1.0  0.61204  0.65434  0.96446  1.0000
  I   I344      1.0  0.44787  0.96628  0.32184  1.0000
  I   I345      1.0  0.33025  0.29294  0.57653  1.0000
  I   I346      1.0  0.09300  0.27765  0.39490  1.0000
  I   I347      1.0  0.44090  0.48666  0.89479  1.0000
  I   I348      1.0  0.90553  0.12252  0.71590  1.0000
  I   I349      1.0  0.78350  0.75046  0.89767  1.0000
  I   I350      1.0  0.86079  0.77905  0.55505  1.0000
  I   I351      1.0  0.09543  0.24037  0.99008  1.0000
  I   I352      1.0  0.18920  0.28883  0.95210  1.0000
  I   I353      1.0  0.18847  0.75002  0.55547  1.0000
  I   I354      1.0  0.54885  0.53678  0.90704  1.0000
  I   I355      1.0  0.04047  0.95098  0.94903  1.0000
  I   I356      1.0  0.65443  0.06745  0.18065  1.0000
  I   I357      1.0  0.67615  0.00255  0.15325  1.0000
  I   I358      1.0  0.69214  0.28129  0.44104  1.0000
  I   I359      1.0  0.94253  0.86869  0.44578  1.0000
  I   I360      1.0  0.22055  0.93224  0.77876  1.0000
  I   I361      1.0  0.57882  0.35501  0.24275  1.0000
  I   I362      1.0  0.65174  0.49882  0.36360  1.0000
  I   I363      1.0  0.74131  0.94017  0.00291  1.0000
  I   I364      1.0  0.53344  0.83030  0.54593  1.0000
  I   I365      1.0  0.89000  0.57442  0.68252  1.0000
  I   I366      1.0  0.34246  0.75297  0.80184  1.0000
  I   I367      1.0  0.41978  0.44667  0.62431  1.0000
  I   I368      1.0  0.13709  0.18517  0.12834  1.0000
  I   I369      1.0  0.56496  0.78891  0.80302  1.0000
  I   I370      1.0  0.56716  0.59535  0.61457  1.0000
  I   I371      1.0  0.98780  0.52750  0.74211  1.0000
  I   I372      1.0  0.65614  0.26432  0.51766  1.0000
  I   I373      1.0  0.88346  0.80937  0.78101  1.0000
  I   I374      1.0  0.40263  0.18820  0.62865  1.0000
  I   I375      1.0  0.34538  0.21688  0.31337  1.0000
  I   I376      1.0  0.77498  0.66016  0.16413  1.0000
  I   I377      1.0  0.41837  0.43521  0.08598  1.0000
  I   I378      1.0  0.03808  0.42444  0.09127  1.0000
  I   I379      1.0  0.22782  0.78943  0.10203  1.0000
  I   I380      1.0  0.75384  0.83341  0.78118  1.0000
  I   I381      1.0  0.88466  0.09288  0.63790  1.0000
  I   I382      1.0  0.07776  0.08389  0.01303  1.0000
  I   I383      1.0  0.94108  0.51096  0.89740  1.0000
  I   I384      1.0  0.20900  0.95733  0.86444  1.0000
