data_image0
_chemical_formula_structural       Ti96I384
_chemical_formula_sum              "Ti96 I384"
_cell_length_a       56.3162
_cell_length_b       56.8569
_cell_length_c       27.4558
_cell_angle_alpha    88.7757
_cell_angle_beta     88.7757
_cell_angle_gamma    62.1586

_space_group_name_H-M_alt    "P 1"
_space_group_IT_number       1

loop_
  _space_group_symop_operation_xyz
  'x, y, z'

loop_
  _atom_site_type_symbol
  _atom_site_label
  _atom_site_symmetry_multiplicity
  _atom_site_fract_x
  _atom_site_fract_y
  _atom_site_fract_z
  _atom_site_occupancy
  Ti  Ti1       1.0  0.89944  0.70083  0.06686  1.0000
  Ti  Ti2       1.0  0.85386  0.93674  0.08117  1.0000
  Ti  Ti3       1.0  0.93885  0.66529  0.53306  1.0000
  Ti  Ti4       1.0  0.30235  0.10344  0.33267  1.0000
  Ti  Ti5       1.0  0.02736  0.10996  0.05415  1.0000
  Ti  Ti6       1.0  0.12809  0.11543  0.24863  1.0000
  Ti  Ti7       1.0  0.96323  0.81437  0.55799  1.0000
  Ti  Ti8       1.0  0.07458  0.97353  0.49785  1.0000
  Ti  Ti9       1.0  0.71279  0.09448  0.75819  1.0000
  Ti  Ti10      1.0  0.37082  0.90375  0.13485  1.0000
  Ti  Ti11      1.0  0.30646  0.60026  0.70582  1.0000
  Ti  Ti12      1.0  0.81957  0.79200  0.72454  1.0000
  Ti  Ti13      1.0  0.43944  0.32089  0.73828  1.0000
  Ti  Ti14      1.0  0.21450  0.41432  0.37659  1.0000
  Ti  Ti15      1.0  0.26118  0.07388  0.05483  1.0000
  Ti  Ti16      1.0  0.11858  0.79041  0.31775  1.0000
  Ti  Ti17      1.0  0.21199  0.62308  0.21271  1.0000
  Ti  Ti18      1.0  0.07126  0.29989  0.20769  1.0000
  Ti  Ti19      1.0  0.63715  0.64604  0.33998  1.0000
  Ti  Ti20      1.0  0.73383  0.84790  0.18747  1.0000
  Ti  Ti21      1.0  0.33576  0.43749  0.14466  1.0000
  Ti  Ti22      1.0  0.47117  0.02872  0.51976  1.0000
  Ti  Ti23      1.0  0.57740  0.86218  0.86012  1.0000
  Ti  Ti24      1.0  0.57228  0.92730  0.49664  1.0000
  Ti  Ti25      1.0  0.25138  0.20371  0.76094  1.0000
  Ti  Ti26      1.0  0.19719  0.36688  0.66622  1.0000
  Ti  Ti27      1.0  0.23528  0.54314  0.34633  1.0000
  Ti  Ti28      1.0  0.53026  0.61037  0.47884  1.0000
  Ti  Ti29      1.0  0.76056  0.40854  0.49965  1.0000
  Ti  Ti30      1.0  0.80909  0.51859  0.54405  1.0000
  Ti  Ti31      1.0  0.64997  0.48879  0.15630  1.0000
  Ti  Ti32      1.0  0.87764  0.13619  0.42802  1.0000
  Ti  Ti33      1.0  0.89363  0.31109  0.93136  1.0000
  Ti  Ti34      1.0  0.98015  0.75275  0.28348  1.0000
  Ti  Ti35      1.0  0.74949  0.56942  0.87693  1.0000
  Ti  Ti36      1.0  0.10257  0.55662  0.65664  1.0000
  Ti  Ti37      1.0  0.73081  0.27554  0.20936  1.0000
  Ti  Ti38      1.0  0.54792  0.30242  0.33701  1.0000
  Ti  Ti39      1.0  0.29780  0.76218  0.25415  1.0000
  Ti  Ti40      1.0  0.33750  0.83543  0.88981  1.0000
  Ti  Ti41      1.0  0.63792  0.38152  0.72372  1.0000
  Ti  Ti42      1.0  0.51201  0.70168  0.13896  1.0000
  Ti  Ti43      1.0  0.82939  0.19421  0.94423  1.0000
  Ti  Ti44      1.0  0.90430  0.52006  0.31817  1.0000
  Ti  Ti45      1.0  0.05674  0.45241  0.32311  1.0000
  Ti  Ti46      1.0  0.57697  0.16448  0.55913  1.0000
  Ti  Ti47      1.0  0.42467  0.25688  0.34082  1.0000
  Ti  Ti48      1.0  0.52109  0.32044  0.00752  1.0000
  Ti  Ti49      1.0  0.90690  0.62642  0.08619  1.0000
  Ti  Ti50      1.0  0.79148  0.95049  0.15691  1.0000
  Ti  Ti51      1.0  0.93252  0.93136  0.08557  1.0000
  Ti  Ti52      1.0  0.30772  0.08891  0.43190  1.0000
  Ti  Ti53      1.0  0.08651  0.09876  0.96647  1.0000
  Ti  Ti54      1.0  0.13642  0.08632  0.40638  1.0000
  Ti  Ti55      1.0  0.98311  0.80357  0.68793  1.0000
  Ti  Ti56      1.0  0.09887  0.93751  0.58579  1.0000
  Ti  Ti57      1.0  0.73923  0.02349  0.68735  1.0000
  Ti  Ti58      1.0  0.12824  0.00029  0.17409  1.0000
  Ti  Ti59      1.0  0.43776  0.91462  0.14667  1.0000
  Ti  Ti60      1.0  0.86155  0.72933  0.73225  1.0000
  Ti  Ti61      1.0  0.22632  0.15418  0.02931  1.0000
  Ti  Ti62      1.0  0.43566  0.25873  0.79567  1.0000
  Ti  Ti63      1.0  0.24115  0.35915  0.32117  1.0000
  Ti  Ti64      1.0  0.10776  0.30601  0.11674  1.0000
  Ti  Ti65      1.0  0.18523  0.71548  0.25461  1.0000
  Ti  Ti66      1.0  0.26498  0.77185  0.71357  1.0000
  Ti  Ti67      1.0  0.69721  0.65115  0.39002  1.0000
  Ti  Ti68      1.0  0.70493  0.87902  0.33054  1.0000
  Ti  Ti69      1.0  0.33704  0.42785  0.97570  1.0000
  Ti  Ti70      1.0  0.51695  0.98424  0.42595  1.0000
  Ti  Ti71      1.0  0.66744  0.81518  0.86652  1.0000
  Ti  Ti72      1.0  0.50680  0.90563  0.81601  1.0000
  Ti  Ti73      1.0  0.17954  0.55205  0.38239  1.0000
  Ti  Ti74      1.0  0.29438  0.17808  0.64488  1.0000
  Ti  Ti75      1.0  0.12016  0.37159  0.71783  1.0000
  Ti  Ti76      1.0  0.83519  0.53104  0.66392  1.0000
  Ti  Ti77      1.0  0.47326  0.59604  0.52667  1.0000
  Ti  Ti78      1.0  0.75660  0.46913  0.56070  1.0000
  Ti  Ti79      1.0  0.91211  0.35916  0.83035  1.0000
  Ti  Ti80      1.0  0.60853  0.54066  0.19618  1.0000
  Ti  Ti81      1.0  0.89686  0.09330  0.31025  1.0000
  Ti  Ti82      1.0  0.05164  0.68493  0.23124  1.0000
  Ti  Ti83      1.0  0.70521  0.61424  0.80264  1.0000
  Ti  Ti84      1.0  0.05986  0.53383  0.59063  1.0000
  Ti  Ti85      1.0  0.71862  0.32257  0.11697  1.0000
  Ti  Ti86      1.0  0.56666  0.30925  0.44541  1.0000
  Ti  Ti87      1.0  0.32022  0.80102  0.25601  1.0000
  Ti  Ti88      1.0  0.35837  0.88055  0.90331  1.0000
  Ti  Ti89      1.0  0.57142  0.39404  0.65535  1.0000
  Ti  Ti90      1.0  0.50127  0.69780  0.98848  1.0000
  Ti  Ti91      1.0  0.08281  0.48116  0.20730  1.0000
  Ti  Ti92      1.0  0.79320  0.22784  0.65761  1.0000
  Ti  Ti93      1.0  0.96141  0.49666  0.37210  1.0000
  Ti  Ti94      1.0  0.49066  0.37329  0.92283  1.0000
  Ti  Ti95      1.0  0.56624  0.10243  0.60835  1.0000
  Ti  Ti96      1.0  0.41165  0.20284  0.31659  1.0000
  I   I1        1.0  0.75270  0.00289  0.16316  1.0000
  I   I2        1.0  0.87693  0.90329  0.00909  1.0000
  I   I3        1.0  0.93567  0.64768  0.02412  1.0000
  I   I4        1.0  0.02614  0.11308  0.94954  1.0000
  I   I5        1.0  0.10463  0.13761  0.44211  1.0000
  I   I6        1.0  0.16927  0.07143  0.32208  1.0000
  I   I7        1.0  0.14641  0.92926  0.60554  1.0000
  I   I8        1.0  0.04160  0.96436  0.55787  1.0000
  I   I9        1.0  0.69877  0.13634  0.70271  1.0000
  I   I10       1.0  0.39542  0.93554  0.08595  1.0000
  I   I11       1.0  0.29319  0.58635  0.62793  1.0000
  I   I12       1.0  0.16136  0.99049  0.09809  1.0000
  I   I13       1.0  0.43457  0.32022  0.83131  1.0000
  I   I14       1.0  0.25959  0.36452  0.23802  1.0000
  I   I15       1.0  0.21799  0.07030  0.06962  1.0000
  I   I16       1.0  0.12952  0.74000  0.28308  1.0000
  I   I17       1.0  0.27984  0.80726  0.73412  1.0000
  I   I18       1.0  0.15207  0.27206  0.07338  1.0000
  I   I19       1.0  0.66644  0.86836  0.35822  1.0000
  I   I20       1.0  0.36599  0.46136  0.15705  1.0000
  I   I21       1.0  0.30701  0.46053  0.04610  1.0000
  I   I22       1.0  0.70522  0.78543  0.80080  1.0000
  I   I23       1.0  0.55799  0.86652  0.77040  1.0000
  I   I24       1.0  0.56899  0.97015  0.41485  1.0000
  I   I25       1.0  0.27776  0.14874  0.70703  1.0000
  I   I26       1.0  0.14332  0.38523  0.63065  1.0000
  I   I27       1.0  0.22853  0.50697  0.39776  1.0000
  I   I28       1.0  0.53042  0.57347  0.54726  1.0000
  I   I29       1.0  0.77787  0.41576  0.59847  1.0000
  I   I30       1.0  0.78915  0.52864  0.64373  1.0000
  I   I31       1.0  0.66581  0.48566  0.24835  1.0000
  I   I32       1.0  0.90472  0.04673  0.33145  1.0000
  I   I33       1.0  0.92109  0.25974  0.94591  1.0000
  I   I34       1.0  0.73877  0.59134  0.96478  1.0000
  I   I35       1.0  0.06401  0.48766  0.57457  1.0000
  I   I36       1.0  0.05292  0.67347  0.14236  1.0000
  I   I37       1.0  0.74844  0.31378  0.20368  1.0000
  I   I38       1.0  0.27907  0.84929  0.28381  1.0000
  I   I39       1.0  0.69412  0.37342  0.12252  1.0000
  I   I40       1.0  0.59210  0.36662  0.74319  1.0000
  I   I41       1.0  0.47855  0.66705  0.00453  1.0000
  I   I42       1.0  0.37560  0.84610  0.82406  1.0000
  I   I43       1.0  0.79830  0.22956  0.88174  1.0000
  I   I44       1.0  0.94823  0.46859  0.30638  1.0000
  I   I45       1.0  0.08448  0.43027  0.40268  1.0000
  I   I46       1.0  0.60756  0.18975  0.58670  1.0000
  I   I47       1.0  0.40220  0.27779  0.43002  1.0000
  I   I48       1.0  0.47187  0.41481  0.97001  1.0000
  I   I49       1.0  0.90734  0.72687  0.99815  1.0000
  I   I50       1.0  0.83214  0.90324  0.12540  1.0000
  I   I51       1.0  0.94731  0.95201  0.01239  1.0000
  I   I52       1.0  0.25582  0.13142  0.44067  1.0000
  I   I53       1.0  0.00953  0.14737  0.13229  1.0000
  I   I54       1.0  0.10093  0.09911  0.31936  1.0000
  I   I55       1.0  0.99206  0.80561  0.47783  1.0000
  I   I56       1.0  0.08302  0.99520  0.58309  1.0000
  I   I57       1.0  0.75891  0.06231  0.71551  1.0000
  I   I58       1.0  0.45811  0.90638  0.23947  1.0000
  I   I59       1.0  0.32539  0.94358  0.10153  1.0000
  I   I60       1.0  0.85244  0.80647  0.77870  1.0000
  I   I61       1.0  0.47762  0.22650  0.85192  1.0000
  I   I62       1.0  0.42206  0.22731  0.75442  1.0000
  I   I63       1.0  0.25105  0.41275  0.43384  1.0000
  I   I64       1.0  0.12742  0.83324  0.30577  1.0000
  I   I65       1.0  0.23838  0.68555  0.25703  1.0000
  I   I66       1.0  0.22438  0.77484  0.76760  1.0000
  I   I67       1.0  0.70318  0.68362  0.44297  1.0000
  I   I68       1.0  0.78243  0.82185  0.15988  1.0000
  I   I69       1.0  0.35749  0.45286  0.92980  1.0000
  I   I70       1.0  0.45892  0.00892  0.42494  1.0000
  I   I71       1.0  0.62563  0.86798  0.81658  1.0000
  I   I72       1.0  0.47432  0.91452  0.89451  1.0000
  I   I73       1.0  0.27249  0.52716  0.28079  1.0000
  I   I74       1.0  0.22045  0.33993  0.58981  1.0000
  I   I75       1.0  0.07579  0.41204  0.69691  1.0000
  I   I76       1.0  0.49474  0.64939  0.42168  1.0000
  I   I77       1.0  0.47168  0.56906  0.60499  1.0000
  I   I78       1.0  0.74527  0.51764  0.51650  1.0000
  I   I79       1.0  0.90121  0.35656  0.73716  1.0000
  I   I80       1.0  0.61132  0.55703  0.27776  1.0000
  I   I81       1.0  0.86200  0.11918  0.51097  1.0000
  I   I82       1.0  0.94939  0.80530  0.27607  1.0000
  I   I83       1.0  0.78075  0.59283  0.85634  1.0000
  I   I84       1.0  0.05461  0.54781  0.68755  1.0000
  I   I85       1.0  0.76131  0.31887  0.07038  1.0000
  I   I86       1.0  0.57072  0.29172  0.53460  1.0000
  I   I87       1.0  0.31326  0.72644  0.18888  1.0000
  I   I88       1.0  0.34461  0.78978  0.85417  1.0000
  I   I89       1.0  0.62606  0.37733  0.61869  1.0000
  I   I90       1.0  0.55558  0.68936  0.18611  1.0000
  I   I91       1.0  0.12598  0.48723  0.21617  1.0000
  I   I92       1.0  0.83405  0.20133  0.71336  1.0000
  I   I93       1.0  0.01110  0.49609  0.38046  1.0000
  I   I94       1.0  0.52258  0.38283  0.86033  1.0000
  I   I95       1.0  0.58499  0.08518  0.70227  1.0000
  I   I96       1.0  0.45392  0.19641  0.38106  1.0000
  I   I97       1.0  0.90500  0.65063  0.48638  1.0000
  I   I98       1.0  0.85956  0.74616  0.10693  1.0000
  I   I99       1.0  0.89048  0.92291  0.14891  1.0000
  I   I100      1.0  0.28384  0.07070  0.36031  1.0000
  I   I101      1.0  0.32314  0.13450  0.35320  1.0000
  I   I102      1.0  0.06753  0.12949  0.05101  1.0000
  I   I103      1.0  0.94408  0.83087  0.74485  1.0000
  I   I104      1.0  0.92265  0.84512  0.49691  1.0000
  I   I105      1.0  0.76324  0.97345  0.71936  1.0000
  I   I106      1.0  0.80590  0.82921  0.65560  1.0000
  I   I107      1.0  0.42603  0.87094  0.14415  1.0000
  I   I108      1.0  0.81677  0.74137  0.78496  1.0000
  I   I109      1.0  0.24309  0.10418  0.96636  1.0000
  I   I110      1.0  0.48000  0.26077  0.72465  1.0000
  I   I111      1.0  0.16541  0.45214  0.40232  1.0000
  I   I112      1.0  0.09264  0.26764  0.12622  1.0000
  I   I113      1.0  0.18666  0.74585  0.18663  1.0000
  I   I114      1.0  0.22099  0.58148  0.16811  1.0000
  I   I115      1.0  0.65693  0.64991  0.44969  1.0000
  I   I116      1.0  0.73337  0.60106  0.41418  1.0000
  I   I117      1.0  0.73376  0.82631  0.29223  1.0000
  I   I118      1.0  0.51375  0.98657  0.32632  1.0000
  I   I119      1.0  0.43064  0.07394  0.50752  1.0000
  I   I120      1.0  0.54586  0.91260  0.88858  1.0000
  I   I121      1.0  0.27064  0.55055  0.39759  1.0000
  I   I122      1.0  0.31241  0.19987  0.71175  1.0000
  I   I123      1.0  0.18166  0.41628  0.69636  1.0000
  I   I124      1.0  0.79373  0.56761  0.53426  1.0000
  I   I125      1.0  0.46872  0.63929  0.57144  1.0000
  I   I126      1.0  0.78809  0.43547  0.47318  1.0000
  I   I127      1.0  0.91373  0.34808  0.93400  1.0000
  I   I128      1.0  0.61046  0.52380  0.09133  1.0000
  I   I129      1.0  0.84982  0.11705  0.37249  1.0000
  I   I130      1.0  0.12296  0.52271  0.72622  1.0000
  I   I131      1.0  0.01926  0.69874  0.31427  1.0000
  I   I132      1.0  0.67778  0.62918  0.71995  1.0000
  I   I133      1.0  0.30072  0.78511  0.33913  1.0000
  I   I134      1.0  0.61340  0.30668  0.43804  1.0000
  I   I135      1.0  0.58257  0.28722  0.25951  1.0000
  I   I136      1.0  0.49910  0.66318  0.14322  1.0000
  I   I137      1.0  0.32965  0.92301  0.85347  1.0000
  I   I138      1.0  0.64781  0.38858  0.80984  1.0000
  I   I139      1.0  0.07323  0.49018  0.30872  1.0000
  I   I140      1.0  0.77724  0.19415  0.62832  1.0000
  I   I141      1.0  0.94839  0.53552  0.31019  1.0000
  I   I142      1.0  0.55788  0.27231  0.04909  1.0000
  I   I143      1.0  0.53765  0.15620  0.61616  1.0000
  I   I144      1.0  0.39520  0.17513  0.36410  1.0000
  I   I145      1.0  0.89861  0.59321  0.03033  1.0000
  I   I146      1.0  0.80055  0.97058  0.04758  1.0000
  I   I147      1.0  0.91116  0.71718  0.53827  1.0000
  I   I148      1.0  0.33339  0.10724  0.48876  1.0000
  I   I149      1.0  0.08903  0.11108  0.87855  1.0000
  I   I150      1.0  0.09635  0.16046  0.21021  1.0000
  I   I151      1.0  0.99335  0.76023  0.73864  1.0000
  I   I152      1.0  0.05760  0.96056  0.42053  1.0000
  I   I153      1.0  0.70880  0.04688  0.78294  1.0000
  I   I154      1.0  0.15858  0.97821  0.25084  1.0000
  I   I155      1.0  0.32895  0.62985  0.69380  1.0000
  I   I156      1.0  0.81713  0.75892  0.65571  1.0000
  I   I157      1.0  0.18461  0.18363  0.97084  1.0000
  I   I158      1.0  0.18532  0.40269  0.30241  1.0000
  I   I159      1.0  0.24873  0.12125  0.11144  1.0000
  I   I160      1.0  0.06479  0.26512  0.26789  1.0000
  I   I161      1.0  0.21402  0.66013  0.15546  1.0000
  I   I162      1.0  0.02572  0.33084  0.16938  1.0000
  I   I163      1.0  0.67187  0.59664  0.34375  1.0000
  I   I164      1.0  0.71033  0.88427  0.12127  1.0000
  I   I165      1.0  0.36208  0.39061  0.18206  1.0000
  I   I166      1.0  0.51215  0.03328  0.45859  1.0000
  I   I167      1.0  0.62109  0.80722  0.82673  1.0000
  I   I168      1.0  0.57621  0.88278  0.54452  1.0000
  I   I169      1.0  0.25264  0.24607  0.79892  1.0000
  I   I170      1.0  0.23729  0.20717  0.66304  1.0000
  I   I171      1.0  0.19954  0.59595  0.32538  1.0000
  I   I172      1.0  0.86789  0.55281  0.62951  1.0000
  I   I173      1.0  0.80177  0.36104  0.47780  1.0000
  I   I174      1.0  0.80758  0.47038  0.58155  1.0000
  I   I175      1.0  0.65066  0.54627  0.17040  1.0000
  I   I176      1.0  0.87752  0.09746  0.22510  1.0000
  I   I177      1.0  0.85094  0.31876  0.88979  1.0000
  I   I178      1.0  0.99853  0.73303  0.19391  1.0000
  I   I179      1.0  0.69741  0.57521  0.86191  1.0000
  I   I180      1.0  0.14625  0.56215  0.63083  1.0000
  I   I181      1.0  0.67887  0.31724  0.19938  1.0000
  I   I182      1.0  0.51940  0.30778  0.42819  1.0000
  I   I183      1.0  0.28995  0.73198  0.32712  1.0000
  I   I184      1.0  0.30720  0.84124  0.96319  1.0000
  I   I185      1.0  0.67172  0.32987  0.72687  1.0000
  I   I186      1.0  0.52411  0.67319  0.90993  1.0000
  I   I187      1.0  0.75159  0.27196  0.69463  1.0000
  I   I188      1.0  0.88901  0.50795  0.23984  1.0000
  I   I189      1.0  0.02004  0.43432  0.34613  1.0000
  I   I190      1.0  0.53961  0.21389  0.53364  1.0000
  I   I191      1.0  0.39281  0.30191  0.29188  1.0000
  I   I192      1.0  0.50612  0.34285  0.09581  1.0000
  I   I193      1.0  0.92255  0.68187  0.15301  1.0000
  I   I194      1.0  0.83014  0.96635  0.16409  1.0000
  I   I195      1.0  0.95099  0.64831  0.62371  1.0000
  I   I196      1.0  0.32441  0.08034  0.24885  1.0000
  I   I197      1.0  0.06756  0.06835  0.09036  1.0000
  I   I198      1.0  0.15374  0.13856  0.28776  1.0000
  I   I199      1.0  0.97044  0.84835  0.60918  1.0000
  I   I200      1.0  0.09836  0.91543  0.67226  1.0000
  I   I201      1.0  0.74030  0.08849  0.83825  1.0000
  I   I202      1.0  0.35479  0.86805  0.13223  1.0000
  I   I203      1.0  0.27036  0.60571  0.77066  1.0000
  I   I204      1.0  0.88945  0.74424  0.66571  1.0000
  I   I205      1.0  0.48299  0.32358  0.72066  1.0000
  I   I206      1.0  0.21965  0.36211  0.41376  1.0000
  I   I207      1.0  0.21362  0.19105  0.09457  1.0000
  I   I208      1.0  0.07556  0.80260  0.26372  1.0000
  I   I209      1.0  0.15816  0.64962  0.17238  1.0000
  I   I210      1.0  0.04858  0.34174  0.27090  1.0000
  I   I211      1.0  0.64958  0.68635  0.33003  1.0000
  I   I212      1.0  0.69994  0.82545  0.17533  1.0000
  I   I213      1.0  0.37192  0.37383  0.94377  1.0000
  I   I214      1.0  0.47900  0.04927  0.60366  1.0000
  I   I215      1.0  0.61902  0.84385  0.92576  1.0000
  I   I216      1.0  0.61272  0.89404  0.44994  1.0000
  I   I217      1.0  0.20846  0.20839  0.80262  1.0000
  I   I218      1.0  0.24462  0.35002  0.70518  1.0000
  I   I219      1.0  0.20371  0.57039  0.44785  1.0000
  I   I220      1.0  0.54989  0.63827  0.51294  1.0000
  I   I221      1.0  0.72783  0.38759  0.51149  1.0000
  I   I222      1.0  0.81131  0.49923  0.45811  1.0000
  I   I223      1.0  0.69057  0.47878  0.10132  1.0000
  I   I224      1.0  0.86322  0.17827  0.47806  1.0000
  I   I225      1.0  0.87291  0.32294  0.01380  1.0000
  I   I226      1.0  0.01768  0.75870  0.33317  1.0000
  I   I227      1.0  0.77154  0.51973  0.89678  1.0000
  I   I228      1.0  0.11551  0.51250  0.56879  1.0000
  I   I229      1.0  0.74465  0.26885  0.30603  1.0000
  I   I230      1.0  0.50389  0.30747  0.30679  1.0000
  I   I231      1.0  0.36175  0.80708  0.28136  1.0000
  I   I232      1.0  0.30184  0.87196  0.82802  1.0000
  I   I233      1.0  0.58253  0.42852  0.71040  1.0000
  I   I234      1.0  0.46925  0.74226  0.93545  1.0000
  I   I235      1.0  0.79671  0.19589  0.01204  1.0000
  I   I236      1.0  0.88005  0.51212  0.38894  1.0000
  I   I237      1.0  0.03145  0.47675  0.23324  1.0000
  I   I238      1.0  0.59599  0.15383  0.46839  1.0000
  I   I239      1.0  0.45783  0.27357  0.36093  1.0000
  I   I240      1.0  0.54738  0.35132  0.99016  1.0000
  I   I241      1.0  0.86691  0.67975  0.05287  1.0000
  I   I242      1.0  0.88090  0.96939  0.05372  1.0000
  I   I243      1.0  0.97777  0.66991  0.48638  1.0000
  I   I244      1.0  0.25329  0.14028  0.28578  1.0000
  I   I245      1.0  0.13601  0.08671  0.99755  1.0000
  I   I246      1.0  0.14138  0.09195  0.16544  1.0000
  I   I247      1.0  0.93541  0.80174  0.62642  1.0000
  I   I248      1.0  0.12397  0.95694  0.45857  1.0000
  I   I249      1.0  0.65587  0.12332  0.76643  1.0000
  I   I250      1.0  0.35479  0.91973  0.21949  1.0000
  I   I251      1.0  0.34362  0.55478  0.73585  1.0000
  I   I252      1.0  0.77677  0.82299  0.77302  1.0000
  I   I253      1.0  0.40902  0.36832  0.71156  1.0000
  I   I254      1.0  0.29005  0.33108  0.35566  1.0000
  I   I255      1.0  0.26487  0.15918  0.98248  1.0000
  I   I256      1.0  0.10266  0.79550  0.40863  1.0000
  I   I257      1.0  0.25723  0.60984  0.25587  1.0000
  I   I258      1.0  0.08562  0.32557  0.02955  1.0000
  I   I259      1.0  0.63150  0.64555  0.24645  1.0000
  I   I260      1.0  0.66780  0.93065  0.34298  1.0000
  I   I261      1.0  0.28899  0.45865  0.18827  1.0000
  I   I262      1.0  0.44647  0.00611  0.56378  1.0000
  I   I263      1.0  0.54193  0.84621  0.88962  1.0000
  I   I264      1.0  0.59546  0.94109  0.56160  1.0000
  I   I265      1.0  0.28443  0.16722  0.82272  1.0000
  I   I266      1.0  0.18049  0.34421  0.73064  1.0000
  I   I267      1.0  0.19843  0.53536  0.28314  1.0000
  I   I268      1.0  0.48919  0.60128  0.43314  1.0000
  I   I269      1.0  0.74943  0.41071  0.39736  1.0000
  I   I270      1.0  0.85880  0.49305  0.58628  1.0000
  I   I271      1.0  0.64845  0.44718  0.11127  1.0000
  I   I272      1.0  0.92918  0.12526  0.42979  1.0000
  I   I273      1.0  0.92540  0.30310  0.84060  1.0000
  I   I274      1.0  0.94279  0.75497  0.35021  1.0000
  I   I275      1.0  0.74662  0.56681  0.77319  1.0000
  I   I276      1.0  0.08704  0.59660  0.71993  1.0000
  I   I277      1.0  0.71369  0.23804  0.20965  1.0000
  I   I278      1.0  0.58684  0.25768  0.37610  1.0000
  I   I279      1.0  0.35606  0.74334  0.25875  1.0000
  I   I280      1.0  0.33380  0.90545  0.98411  1.0000
  I   I281      1.0  0.55150  0.35943  0.65040  1.0000
  I   I282      1.0  0.48483  0.72279  0.21664  1.0000
  I   I283      1.0  0.87341  0.19416  0.96952  1.0000
  I   I284      1.0  0.86665  0.57318  0.31881  1.0000
  I   I285      1.0  0.09505  0.42934  0.25400  1.0000
  I   I286      1.0  0.61022  0.11506  0.59395  1.0000
  I   I287      1.0  0.44362  0.22156  0.26090  1.0000
  I   I288      1.0  0.53036  0.31378  0.89995  1.0000
  I   I289      1.0  0.86838  0.64424  0.15536  1.0000
  I   I290      1.0  0.75092  0.93842  0.12940  1.0000
  I   I291      1.0  0.96761  0.88135  0.09006  1.0000
  I   I292      1.0  0.35251  0.06002  0.38326  1.0000
  I   I293      1.0  0.09709  0.04758  0.95394  1.0000
  I   I294      1.0  0.17857  0.07857  0.45463  1.0000
  I   I295      1.0  0.01733  0.81278  0.73338  1.0000
  I   I296      1.0  0.09746  0.89758  0.54880  1.0000
  I   I297      1.0  0.76670  0.01775  0.60562  1.0000
  I   I298      1.0  0.09910  0.97463  0.14759  1.0000
  I   I299      1.0  0.48455  0.89010  0.09541  1.0000
  I   I300      1.0  0.87325  0.67884  0.71508  1.0000
  I   I301      1.0  0.27246  0.03098  0.99328  1.0000
  I   I302      1.0  0.40111  0.30558  0.72854  1.0000
  I   I303      1.0  0.23284  0.43215  0.30611  1.0000
  I   I304      1.0  0.11835  0.34168  0.14395  1.0000
  I   I305      1.0  0.18825  0.66502  0.29112  1.0000
  I   I306      1.0  0.30176  0.72459  0.73041  1.0000
  I   I307      1.0  0.59353  0.65472  0.39579  1.0000
  I   I308      1.0  0.73378  0.88642  0.24154  1.0000
  I   I309      1.0  0.29866  0.42892  0.92448  1.0000
  I   I310      1.0  0.51890  0.97865  0.52304  1.0000
  I   I311      1.0  0.69116  0.84671  0.87854  1.0000
  I   I312      1.0  0.48064  0.89629  0.75014  1.0000
  I   I313      1.0  0.16513  0.52661  0.45389  1.0000
  I   I314      1.0  0.28907  0.20024  0.55995  1.0000
  I   I315      1.0  0.11157  0.36258  0.80990  1.0000
  I   I316      1.0  0.86309  0.49816  0.72709  1.0000
  I   I317      1.0  0.42589  0.60379  0.50839  1.0000
  I   I318      1.0  0.73379  0.49116  0.64272  1.0000
  I   I319      1.0  0.86424  0.39993  0.85586  1.0000
  I   I320      1.0  0.56001  0.58668  0.17983  1.0000
  I   I321      1.0  0.88345  0.15116  0.32925  1.0000
  I   I322      1.0  0.08192  0.70726  0.25365  1.0000
  I   I323      1.0  0.72151  0.65030  0.78842  1.0000
  I   I324      1.0  0.01419  0.56609  0.55586  1.0000
  I   I325      1.0  0.69405  0.31888  0.04532  1.0000
  I   I326      1.0  0.54649  0.34745  0.31470  1.0000
  I   I327      1.0  0.30892  0.79488  0.16174  1.0000
  I   I328      1.0  0.40389  0.88287  0.90405  1.0000
  I   I329      1.0  0.66237  0.40948  0.68649  1.0000
  I   I330      1.0  0.54719  0.67599  0.05337  1.0000
  I   I331      1.0  0.05201  0.52978  0.18652  1.0000
  I   I332      1.0  0.85153  0.14802  0.90151  1.0000
  I   I333      1.0  0.94707  0.46681  0.43267  1.0000
  I   I334      1.0  0.45623  0.38230  0.85711  1.0000
  I   I335      1.0  0.57617  0.08619  0.52169  1.0000
  I   I336      1.0  0.37200  0.24803  0.33161  1.0000
  I   I337      1.0  0.94499  0.60123  0.14847  1.0000
  I   I338      1.0  0.79390  0.93253  0.24835  1.0000
  I   I339      1.0  0.94398  0.95156  0.16451  1.0000
  I   I340      1.0  0.30221  0.06000  0.50172  1.0000
  I   I341      1.0  0.99059  0.09657  0.06611  1.0000
  I   I342      1.0  0.11291  0.06361  0.45960  1.0000
  I   I343      1.0  0.00283  0.76714  0.59418  1.0000
  I   I344      1.0  0.06134  0.02279  0.46525  1.0000
  I   I345      1.0  0.69455  0.03992  0.65213  1.0000
  I   I346      1.0  0.10648  0.04696  0.20208  1.0000
  I   I347      1.0  0.42420  0.96676  0.15956  1.0000
  I   I348      1.0  0.89616  0.71798  0.80175  1.0000
  I   I349      1.0  0.29182  0.04103  0.11813  1.0000
  I   I350      1.0  0.39782  0.27749  0.85879  1.0000
  I   I351      1.0  0.21818  0.33070  0.29790  1.0000
  I   I352      1.0  0.12841  0.27748  0.21637  1.0000
  I   I353      1.0  0.17576  0.75443  0.32222  1.0000
  I   I354      1.0  0.24286  0.78299  0.62921  1.0000
  I   I355      1.0  0.72005  0.65729  0.31147  1.0000
  I   I356      1.0  0.73245  0.86518  0.40819  1.0000
  I   I357      1.0  0.36948  0.41908  0.06382  1.0000
  I   I358      1.0  0.52660  0.93047  0.43524  1.0000
  I   I359      1.0  0.68749  0.78132  0.93550  1.0000
  I   I360      1.0  0.50069  0.95119  0.77708  1.0000
  I   I361      1.0  0.13253  0.58515  0.35671  1.0000
  I   I362      1.0  0.34429  0.13909  0.63196  1.0000
  I   I363      1.0  0.11121  0.33791  0.67558  1.0000
  I   I364      1.0  0.81520  0.57227  0.71723  1.0000
  I   I365      1.0  0.56789  0.57869  0.42783  1.0000
  I   I366      1.0  0.72037  0.46236  0.51845  1.0000
  I   I367      1.0  0.94633  0.37932  0.81658  1.0000
  I   I368      1.0  0.59689  0.50191  0.20579  1.0000
  I   I369      1.0  0.94882  0.07633  0.27829  1.0000
  I   I370      1.0  0.08391  0.63991  0.26939  1.0000
  I   I371      1.0  0.67229  0.64878  0.86601  1.0000
  I   I372      1.0  0.06448  0.58485  0.57514  1.0000
  I   I373      1.0  0.76335  0.24677  0.13742  1.0000
  I   I374      1.0  0.53977  0.36024  0.45773  1.0000
  I   I375      1.0  0.24660  0.79501  0.22534  1.0000
  I   I376      1.0  0.38008  0.83468  0.95682  1.0000
  I   I377      1.0  0.52950  0.42935  0.60188  1.0000
  I   I378      1.0  0.47897  0.73206  0.07119  1.0000
  I   I379      1.0  0.09039  0.46376  0.11889  1.0000
  I   I380      1.0  0.81208  0.24765  0.58951  1.0000
  I   I381      1.0  0.94202  0.53405  0.43768  1.0000
  I   I382      1.0  0.46748  0.34663  0.98140  1.0000
  I   I383      1.0  0.52147  0.09731  0.62333  1.0000
  I   I384      1.0  0.41082  0.18616  0.22386  1.0000
