data_image0
_chemical_formula_structural       Ti96I384
_chemical_formula_sum              "Ti96 I384"
_cell_length_a       68.246
_cell_length_b       68.0778
_cell_length_c       33.3196
_cell_angle_alpha    88.7757
_cell_angle_beta     88.7757
_cell_angle_gamma    62.1586

_space_group_name_H-M_alt    "P 1"
_space_group_IT_number       1

loop_
  _space_group_symop_operation_xyz
  'x, y, z'

loop_
  _atom_site_type_symbol
  _atom_site_label
  _atom_site_symmetry_multiplicity
  _atom_site_fract_x
  _atom_site_fract_y
  _atom_site_fract_z
  _atom_site_occupancy
  Ti  Ti1       1.0  0.12106  0.81739  0.05139  1.0000
  Ti  Ti2       1.0  0.90928  0.05244  0.92499  1.0000
  Ti  Ti3       1.0  0.54754  0.94466  0.13862  1.0000
  Ti  Ti4       1.0  0.83139  0.35560  0.13049  1.0000
  Ti  Ti5       1.0  0.51034  0.86481  0.21908  1.0000
  Ti  Ti6       1.0  0.88449  0.80911  0.04872  1.0000
  Ti  Ti7       1.0  0.92339  0.40530  0.55872  1.0000
  Ti  Ti8       1.0  0.26150  0.82603  0.37544  1.0000
  Ti  Ti9       1.0  0.19576  0.04838  0.94912  1.0000
  Ti  Ti10      1.0  0.01360  0.72016  0.50229  1.0000
  Ti  Ti11      1.0  0.31800  0.14561  0.64657  1.0000
  Ti  Ti12      1.0  0.20129  0.58029  0.75321  1.0000
  Ti  Ti13      1.0  0.95644  0.12037  0.34606  1.0000
  Ti  Ti14      1.0  0.96609  0.03387  0.72373  1.0000
  Ti  Ti15      1.0  0.81701  0.96089  0.48537  1.0000
  Ti  Ti16      1.0  0.97495  0.77885  0.45927  1.0000
  Ti  Ti17      1.0  0.32055  0.04206  0.59292  1.0000
  Ti  Ti18      1.0  0.63530  0.79365  0.79520  1.0000
  Ti  Ti19      1.0  0.51942  0.61896  0.79912  1.0000
  Ti  Ti20      1.0  0.18774  0.11099  0.73581  1.0000
  Ti  Ti21      1.0  0.21218  0.87580  0.31188  1.0000
  Ti  Ti22      1.0  0.62948  0.82461  0.29305  1.0000
  Ti  Ti23      1.0  0.42095  0.14132  0.49797  1.0000
  Ti  Ti24      1.0  0.22986  0.82613  0.97871  1.0000
  Ti  Ti25      1.0  0.53551  0.88554  0.60770  1.0000
  Ti  Ti26      1.0  0.36777  0.77699  0.86183  1.0000
  Ti  Ti27      1.0  0.77023  0.24466  0.68274  1.0000
  Ti  Ti28      1.0  0.77624  0.53044  0.39006  1.0000
  Ti  Ti29      1.0  0.06360  0.79407  0.11673  1.0000
  Ti  Ti30      1.0  0.42309  0.98063  0.81681  1.0000
  Ti  Ti31      1.0  0.19862  0.49674  0.08673  1.0000
  Ti  Ti32      1.0  0.97656  0.24666  0.85190  1.0000
  Ti  Ti33      1.0  0.14075  0.83576  0.53947  1.0000
  Ti  Ti34      1.0  0.33614  0.32295  0.45598  1.0000
  Ti  Ti35      1.0  0.72184  0.58995  0.57930  1.0000
  Ti  Ti36      1.0  0.00882  0.11472  0.02086  1.0000
  Ti  Ti37      1.0  0.18536  0.31831  0.46991  1.0000
  Ti  Ti38      1.0  0.37674  0.40479  0.11000  1.0000
  Ti  Ti39      1.0  0.83653  0.59313  0.24195  1.0000
  Ti  Ti40      1.0  0.23693  0.35869  0.68647  1.0000
  Ti  Ti41      1.0  0.47412  0.46139  0.56302  1.0000
  Ti  Ti42      1.0  0.09553  0.17966  0.41996  1.0000
  Ti  Ti43      1.0  0.32674  0.89930  0.11877  1.0000
  Ti  Ti44      1.0  0.83594  0.59872  0.80880  1.0000
  Ti  Ti45      1.0  0.22286  0.69178  0.48872  1.0000
  Ti  Ti46      1.0  0.73262  0.31684  0.38752  1.0000
  Ti  Ti47      1.0  0.27502  0.57487  0.43640  1.0000
  Ti  Ti48      1.0  0.77658  0.11842  0.24389  1.0000
  Ti  Ti49      1.0  0.98257  0.23071  0.23484  1.0000
  Ti  Ti50      1.0  0.07482  0.32831  0.58388  1.0000
  Ti  Ti51      1.0  0.90751  0.09574  0.96382  1.0000
  Ti  Ti52      1.0  0.82603  0.10773  0.44642  1.0000
  Ti  Ti53      1.0  0.41661  0.70478  0.34335  1.0000
  Ti  Ti54      1.0  0.83978  0.82038  0.10776  1.0000
  Ti  Ti55      1.0  0.90383  0.40575  0.65020  1.0000
  Ti  Ti56      1.0  0.97280  0.39835  0.87180  1.0000
  Ti  Ti57      1.0  0.19159  0.10120  0.93326  1.0000
  Ti  Ti58      1.0  0.61716  0.29993  0.54833  1.0000
  Ti  Ti59      1.0  0.36738  0.24131  0.25035  1.0000
  Ti  Ti60      1.0  0.21970  0.59937  0.85517  1.0000
  Ti  Ti61      1.0  0.87800  0.94198  0.41519  1.0000
  Ti  Ti62      1.0  0.91352  0.09692  0.36105  1.0000
  Ti  Ti63      1.0  0.99244  0.97536  0.75726  1.0000
  Ti  Ti64      1.0  0.62117  0.84374  0.85711  1.0000
  Ti  Ti65      1.0  0.66567  0.96719  0.90855  1.0000
  Ti  Ti66      1.0  0.48202  0.15073  0.98822  1.0000
  Ti  Ti67      1.0  0.55228  0.61009  0.87864  1.0000
  Ti  Ti68      1.0  0.74614  0.54946  0.02966  1.0000
  Ti  Ti69      1.0  0.38924  0.81247  0.95609  1.0000
  Ti  Ti70      1.0  0.38354  0.87677  0.13407  1.0000
  Ti  Ti71      1.0  0.38846  0.14242  0.43925  1.0000
  Ti  Ti72      1.0  0.10522  0.17178  0.03430  1.0000
  Ti  Ti73      1.0  0.77000  0.21326  0.75972  1.0000
  Ti  Ti74      1.0  0.53104  0.92926  0.53143  1.0000
  Ti  Ti75      1.0  0.37407  0.76836  0.75343  1.0000
  Ti  Ti76      1.0  0.39698  0.00643  0.74907  1.0000
  Ti  Ti77      1.0  0.75939  0.54254  0.28535  1.0000
  Ti  Ti78      1.0  0.02278  0.84215  0.10186  1.0000
  Ti  Ti79      1.0  0.73398  0.39016  0.85859  1.0000
  Ti  Ti80      1.0  0.81619  0.37429  0.25150  1.0000
  Ti  Ti81      1.0  0.90558  0.29057  0.89626  1.0000
  Ti  Ti82      1.0  0.29033  0.40669  0.49425  1.0000
  Ti  Ti83      1.0  0.67785  0.60932  0.61869  1.0000
  Ti  Ti84      1.0  0.03617  0.06841  0.08401  1.0000
  Ti  Ti85      1.0  0.16537  0.33596  0.37778  1.0000
  Ti  Ti86      1.0  0.47071  0.20959  0.94874  1.0000
  Ti  Ti87      1.0  0.87932  0.57608  0.16091  1.0000
  Ti  Ti88      1.0  0.50082  0.40785  0.32904  1.0000
  Ti  Ti89      1.0  0.51333  0.45250  0.65805  1.0000
  Ti  Ti90      1.0  0.11915  0.12674  0.50475  1.0000
  Ti  Ti91      1.0  0.23747  0.68992  0.68167  1.0000
  Ti  Ti92      1.0  0.31606  0.57549  0.01612  1.0000
  Ti  Ti93      1.0  0.89269  0.60568  0.91994  1.0000
  Ti  Ti94      1.0  0.73825  0.15892  0.19581  1.0000
  Ti  Ti95      1.0  0.74689  0.35073  0.42136  1.0000
  Ti  Ti96      1.0  0.33688  0.57152  0.47262  1.0000
  I   I1        1.0  0.26520  0.55418  0.49549  1.0000
  I   I2        1.0  0.92739  0.11628  0.93754  1.0000
  I   I3        1.0  0.95026  0.25605  0.18500  1.0000
  I   I4        1.0  0.42719  0.70464  0.26470  1.0000
  I   I5        1.0  0.86076  0.77873  0.06668  1.0000
  I   I6        1.0  0.81638  0.80286  0.13602  1.0000
  I   I7        1.0  0.29136  0.82184  0.42251  1.0000
  I   I8        1.0  0.94246  0.42093  0.82310  1.0000
  I   I9        1.0  0.21020  0.11382  0.98561  1.0000
  I   I10       1.0  0.95928  0.79395  0.53033  1.0000
  I   I11       1.0  0.28126  0.17994  0.61426  1.0000
  I   I12       1.0  0.48082  0.88437  0.27515  1.0000
  I   I13       1.0  0.97078  0.14857  0.32369  1.0000
  I   I14       1.0  0.94188  0.06062  0.66222  1.0000
  I   I15       1.0  0.83517  0.98219  0.51569  1.0000
  I   I16       1.0  0.02056  0.75216  0.46631  1.0000
  I   I17       1.0  0.46357  0.19346  0.02920  1.0000
  I   I18       1.0  0.60775  0.83767  0.76889  1.0000
  I   I19       1.0  0.17301  0.09351  0.68066  1.0000
  I   I20       1.0  0.33237  0.11309  0.69773  1.0000
  I   I21       1.0  0.20038  0.88458  0.23424  1.0000
  I   I22       1.0  0.45976  0.10480  0.48332  1.0000
  I   I23       1.0  0.41355  0.16854  0.42814  1.0000
  I   I24       1.0  0.41900  0.84790  0.08667  1.0000
  I   I25       1.0  0.53127  0.96633  0.55143  1.0000
  I   I26       1.0  0.35529  0.79800  0.69428  1.0000
  I   I27       1.0  0.80979  0.24321  0.66539  1.0000
  I   I28       1.0  0.78153  0.48988  0.38976  1.0000
  I   I29       1.0  0.09978  0.77730  0.16928  1.0000
  I   I30       1.0  0.44505  0.98499  0.87616  1.0000
  I   I31       1.0  0.85322  0.37273  0.28385  1.0000
  I   I32       1.0  0.89387  0.30475  0.97088  1.0000
  I   I33       1.0  0.76309  0.38434  0.80333  1.0000
  I   I34       1.0  0.75275  0.58392  0.52254  1.0000
  I   I35       1.0  0.05067  0.09568  0.97987  1.0000
  I   I36       1.0  0.31128  0.33492  0.39224  1.0000
  I   I37       1.0  0.16912  0.29901  0.33397  1.0000
  I   I38       1.0  0.89557  0.54012  0.11830  1.0000
  I   I39       1.0  0.14327  0.32883  0.43990  1.0000
  I   I40       1.0  0.46746  0.42395  0.56835  1.0000
  I   I41       1.0  0.09511  0.14106  0.43615  1.0000
  I   I42       1.0  0.26660  0.31626  0.67132  1.0000
  I   I43       1.0  0.60720  0.29196  0.47731  1.0000
  I   I44       1.0  0.86432  0.55727  0.79035  1.0000
  I   I45       1.0  0.20600  0.66882  0.52940  1.0000
  I   I46       1.0  0.74235  0.36787  0.34799  1.0000
  I   I47       1.0  0.26715  0.56529  0.36859  1.0000
  I   I48       1.0  0.79419  0.08585  0.29374  1.0000
  I   I49       1.0  0.02209  0.19620  0.20740  1.0000
  I   I50       1.0  0.90926  0.05893  0.00660  1.0000
  I   I51       1.0  0.86528  0.12579  0.97426  1.0000
  I   I52       1.0  0.86806  0.33838  0.16293  1.0000
  I   I53       1.0  0.37588  0.72656  0.33750  1.0000
  I   I54       1.0  0.83530  0.85434  0.14819  1.0000
  I   I55       1.0  0.92315  0.44405  0.54063  1.0000
  I   I56       1.0  0.23550  0.82184  0.30755  1.0000
  I   I57       1.0  0.18771  0.03522  0.87573  1.0000
  I   I58       1.0  0.05252  0.70058  0.53747  1.0000
  I   I59       1.0  0.33140  0.26423  0.21624  1.0000
  I   I60       1.0  0.18937  0.59953  0.90142  1.0000
  I   I61       1.0  0.93976  0.05698  0.38825  1.0000
  I   I62       1.0  0.92809  0.12335  0.41445  1.0000
  I   I63       1.0  0.96433  0.03060  0.80450  1.0000
  I   I64       1.0  0.96749  0.74128  0.46827  1.0000
  I   I65       1.0  0.64167  0.98484  0.84238  1.0000
  I   I66       1.0  0.46987  0.13315  0.05302  1.0000
  I   I67       1.0  0.55967  0.58586  0.79869  1.0000
  I   I68       1.0  0.18220  0.09204  0.80211  1.0000
  I   I69       1.0  0.34733  0.84464  0.96143  1.0000
  I   I70       1.0  0.36114  0.86844  0.06578  1.0000
  I   I71       1.0  0.41071  0.11908  0.55789  1.0000
  I   I72       1.0  0.12337  0.19871  0.03905  1.0000
  I   I73       1.0  0.78113  0.19623  0.66747  1.0000
  I   I74       1.0  0.36516  0.73898  0.86353  1.0000
  I   I75       1.0  0.40813  0.74931  0.81126  1.0000
  I   I76       1.0  0.80290  0.52457  0.31994  1.0000
  I   I77       1.0  0.78013  0.51428  0.22861  1.0000
  I   I78       1.0  0.08082  0.82402  0.08696  1.0000
  I   I79       1.0  0.15818  0.85299  0.58853  1.0000
  I   I80       1.0  0.21944  0.50913  0.03923  1.0000
  I   I81       1.0  0.01204  0.24350  0.89203  1.0000
  I   I82       1.0  0.31836  0.38986  0.43114  1.0000
  I   I83       1.0  0.65110  0.64593  0.64869  1.0000
  I   I84       1.0  0.01791  0.15184  0.02647  1.0000
  I   I85       1.0  0.17365  0.36230  0.42322  1.0000
  I   I86       1.0  0.48598  0.23102  0.99535  1.0000
  I   I87       1.0  0.83687  0.62798  0.27209  1.0000
  I   I88       1.0  0.20692  0.36527  0.63422  1.0000
  I   I89       1.0  0.55839  0.42629  0.68075  1.0000
  I   I90       1.0  0.08761  0.15733  0.55633  1.0000
  I   I91       1.0  0.23276  0.72674  0.64364  1.0000
  I   I92       1.0  0.28814  0.61769  0.01514  1.0000
  I   I93       1.0  0.84529  0.60621  0.88101  1.0000
  I   I94       1.0  0.74078  0.11842  0.23889  1.0000
  I   I95       1.0  0.73621  0.27632  0.36715  1.0000
  I   I96       1.0  0.36836  0.52979  0.49146  1.0000
  I   I97       1.0  0.52618  0.98097  0.09045  1.0000
  I   I98       1.0  0.09369  0.85025  0.00157  1.0000
  I   I99       1.0  0.86369  0.06955  0.92280  1.0000
  I   I100      1.0  0.83366  0.38500  0.07843  1.0000
  I   I101      1.0  0.79378  0.09397  0.44173  1.0000
  I   I102      1.0  0.53725  0.83669  0.27537  1.0000
  I   I103      1.0  0.87471  0.41888  0.70977  1.0000
  I   I104      1.0  0.95613  0.38297  0.60481  1.0000
  I   I105      1.0  0.22528  0.06691  0.91117  1.0000
  I   I106      1.0  0.18046  0.59047  0.68783  1.0000
  I   I107      1.0  0.98970  0.72440  0.57523  1.0000
  I   I108      1.0  0.23396  0.58429  0.70574  1.0000
  I   I109      1.0  0.79996  0.95068  0.54409  1.0000
  I   I110      1.0  0.92083  0.12271  0.30075  1.0000
  I   I111      1.0  0.98223  0.97171  0.83251  1.0000
  I   I112      1.0  0.59720  0.88722  0.85381  1.0000
  I   I113      1.0  0.63262  0.97004  0.95278  1.0000
  I   I114      1.0  0.34292  0.06349  0.60442  1.0000
  I   I115      1.0  0.59549  0.58687  0.89400  1.0000
  I   I116      1.0  0.53175  0.57221  0.87295  1.0000
  I   I117      1.0  0.78184  0.55233  0.03448  1.0000
  I   I118      1.0  0.59909  0.86342  0.30406  1.0000
  I   I119      1.0  0.41189  0.87412  0.18456  1.0000
  I   I120      1.0  0.11738  0.13492  0.07848  1.0000
  I   I121      1.0  0.78093  0.24458  0.77486  1.0000
  I   I122      1.0  0.55501  0.86595  0.67561  1.0000
  I   I123      1.0  0.35249  0.80681  0.79919  1.0000
  I   I124      1.0  0.38667  0.01967  0.83873  1.0000
  I   I125      1.0  0.77464  0.52461  0.46712  1.0000
  I   I126      1.0  0.98324  0.85072  0.13654  1.0000
  I   I127      1.0  0.12711  0.86047  0.47761  1.0000
  I   I128      1.0  0.79997  0.34999  0.20340  1.0000
  I   I129      1.0  0.94970  0.25180  0.91508  1.0000
  I   I130      1.0  0.97736  0.13696  0.96970  1.0000
  I   I131      1.0  0.30523  0.35587  0.50893  1.0000
  I   I132      1.0  0.71497  0.58839  0.67557  1.0000
  I   I133      1.0  0.83215  0.57603  0.31556  1.0000
  I   I134      1.0  0.40530  0.36286  0.11356  1.0000
  I   I135      1.0  0.42664  0.21898  0.95134  1.0000
  I   I136      1.0  0.10351  0.21404  0.42553  1.0000
  I   I137      1.0  0.50106  0.37801  0.28321  1.0000
  I   I138      1.0  0.51633  0.43664  0.57193  1.0000
  I   I139      1.0  0.20517  0.68508  0.64949  1.0000
  I   I140      1.0  0.31166  0.55316  0.95819  1.0000
  I   I141      1.0  0.86543  0.60284  0.97585  1.0000
  I   I142      1.0  0.73302  0.16848  0.27549  1.0000
  I   I143      1.0  0.69973  0.32351  0.43759  1.0000
  I   I144      1.0  0.32805  0.57829  0.54714  1.0000
  I   I145      1.0  0.12572  0.78697  0.00029  1.0000
  I   I146      1.0  0.92633  0.01469  0.89691  1.0000
  I   I147      1.0  0.58828  0.93611  0.14545  1.0000
  I   I148      1.0  0.84482  0.08136  0.39063  1.0000
  I   I149      1.0  0.52514  0.89355  0.23164  1.0000
  I   I150      1.0  0.92365  0.77704  0.04641  1.0000
  I   I151      1.0  0.91699  0.43391  0.66885  1.0000
  I   I152      1.0  0.28008  0.78221  0.36044  1.0000
  I   I153      1.0  0.19874  0.12901  0.88349  1.0000
  I   I154      1.0  0.32158  0.93890  0.09509  1.0000
  I   I155      1.0  0.35650  0.12300  0.61124  1.0000
  I   I156      1.0  0.21492  0.63367  0.89392  1.0000
  I   I157      1.0  0.77371  0.99260  0.47136  1.0000
  I   I158      1.0  0.99931  0.94442  0.70786  1.0000
  I   I159      1.0  0.86579  0.98036  0.38695  1.0000
  I   I160      1.0  0.66360  0.78024  0.73213  1.0000
  I   I161      1.0  0.31458  0.02245  0.65358  1.0000
  I   I162      1.0  0.66418  0.76597  0.84860  1.0000
  I   I163      1.0  0.49857  0.63245  0.86766  1.0000
  I   I164      1.0  0.73865  0.54541  0.10403  1.0000
  I   I165      1.0  0.20559  0.91716  0.33870  1.0000
  I   I166      1.0  0.65238  0.82439  0.23066  1.0000
  I   I167      1.0  0.35931  0.12609  0.43793  1.0000
  I   I168      1.0  0.24547  0.79274  0.02972  1.0000
  I   I169      1.0  0.50904  0.90967  0.50555  1.0000
  I   I170      1.0  0.56557  0.90689  0.57701  1.0000
  I   I171      1.0  0.75116  0.28846  0.68564  1.0000
  I   I172      1.0  0.35530  0.02371  0.72864  1.0000
  I   I173      1.0  0.03797  0.78195  0.16012  1.0000
  I   I174      1.0  0.40163  0.96274  0.77069  1.0000
  I   I175      1.0  0.21551  0.45532  0.09717  1.0000
  I   I176      1.0  0.98921  0.26584  0.79464  1.0000
  I   I177      1.0  0.76000  0.35941  0.91709  1.0000
  I   I178      1.0  0.31954  0.39500  0.55263  1.0000
  I   I179      1.0  0.67334  0.62137  0.53786  1.0000
  I   I180      1.0  0.01819  0.05962  0.15336  1.0000
  I   I181      1.0  0.21685  0.29536  0.40826  1.0000
  I   I182      1.0  0.50257  0.17222  0.94226  1.0000
  I   I183      1.0  0.91519  0.57744  0.16048  1.0000
  I   I184      1.0  0.52027  0.43356  0.30884  1.0000
  I   I185      1.0  0.46972  0.46858  0.48777  1.0000
  I   I186      1.0  0.05610  0.20167  0.39615  1.0000
  I   I187      1.0  0.34931  0.57971  0.03580  1.0000
  I   I188      1.0  0.85834  0.61523  0.76820  1.0000
  I   I189      1.0  0.21837  0.68126  0.41379  1.0000
  I   I190      1.0  0.69986  0.34817  0.33723  1.0000
  I   I191      1.0  0.10986  0.30540  0.53484  1.0000
  I   I192      1.0  0.80401  0.08648  0.18945  1.0000
  I   I193      1.0  0.14788  0.79587  0.10754  1.0000
  I   I194      1.0  0.08446  0.30121  0.64066  1.0000
  I   I195      1.0  0.54606  0.91478  0.09685  1.0000
  I   I196      1.0  0.82735  0.33125  0.07184  1.0000
  I   I197      1.0  0.57706  0.31487  0.58322  1.0000
  I   I198      1.0  0.88669  0.80913  0.96828  1.0000
  I   I199      1.0  0.87771  0.43370  0.59784  1.0000
  I   I200      1.0  0.95268  0.39428  0.93444  1.0000
  I   I201      1.0  0.15706  0.05217  0.96194  1.0000
  I   I202      1.0  0.37619  0.27142  0.27556  1.0000
  I   I203      1.0  0.40754  0.83913  0.95448  1.0000
  I   I204      1.0  0.23730  0.56057  0.81285  1.0000
  I   I205      1.0  0.98744  0.09901  0.39599  1.0000
  I   I206      1.0  0.03128  0.97576  0.77730  1.0000
  I   I207      1.0  0.82668  0.95857  0.39784  1.0000
  I   I208      1.0  0.97900  0.77006  0.37470  1.0000
  I   I209      1.0  0.34471  0.02408  0.52520  1.0000
  I   I210      1.0  0.61166  0.77551  0.78215  1.0000
  I   I211      1.0  0.54670  0.64515  0.83567  1.0000
  I   I212      1.0  0.15797  0.15268  0.71149  1.0000
  I   I213      1.0  0.40816  0.79004  0.01642  1.0000
  I   I214      1.0  0.65041  0.81570  0.35941  1.0000
  I   I215      1.0  0.42094  0.10510  0.40121  1.0000
  I   I216      1.0  0.18665  0.84744  0.97394  1.0000
  I   I217      1.0  0.50586  0.87102  0.63203  1.0000
  I   I218      1.0  0.39878  0.72992  0.71793  1.0000
  I   I219      1.0  0.76054  0.24883  0.60533  1.0000
  I   I220      1.0  0.73137  0.55167  0.35936  1.0000
  I   I221      1.0  0.08362  0.76075  0.06113  1.0000
  I   I222      1.0  0.45755  0.95697  0.76344  1.0000
  I   I223      1.0  0.18570  0.50605  0.16449  1.0000
  I   I224      1.0  0.99767  0.20527  0.82578  1.0000
  I   I225      1.0  0.17153  0.80688  0.49615  1.0000
  I   I226      1.0  0.28216  0.44668  0.48594  1.0000
  I   I227      1.0  0.65945  0.58449  0.63218  1.0000
  I   I228      1.0  0.99441  0.08737  0.04758  1.0000
  I   I229      1.0  0.17672  0.34328  0.53372  1.0000
  I   I230      1.0  0.33761  0.40696  0.09681  1.0000
  I   I231      1.0  0.79405  0.61735  0.23446  1.0000
  I   I232      1.0  0.94848  0.00181  0.72736  1.0000
  I   I233      1.0  0.49591  0.49088  0.61513  1.0000
  I   I234      1.0  0.11447  0.09088  0.51644  1.0000
  I   I235      1.0  0.29824  0.92539  0.17306  1.0000
  I   I236      1.0  0.91210  0.57490  0.86784  1.0000
  I   I237      1.0  0.23452  0.69809  0.75839  1.0000
  I   I238      1.0  0.76890  0.31144  0.35048  1.0000
  I   I239      1.0  0.35887  0.59382  0.44383  1.0000
  I   I240      1.0  0.79627  0.14550  0.23439  1.0000
  I   I241      1.0  0.98653  0.26071  0.27017  1.0000
  I   I242      1.0  0.95300  0.04769  0.93362  1.0000
  I   I243      1.0  0.53161  0.94787  0.21804  1.0000
  I   I244      1.0  0.85216  0.09243  0.50568  1.0000
  I   I245      1.0  0.42376  0.66353  0.35534  1.0000
  I   I246      1.0  0.88770  0.80358  0.12895  1.0000
  I   I247      1.0  0.92272  0.36375  0.68111  1.0000
  I   I248      1.0  0.22526  0.83067  0.41033  1.0000
  I   I249      1.0  0.18550  0.07928  0.00841  1.0000
  I   I250      1.0  0.36577  0.20303  0.26885  1.0000
  I   I251      1.0  0.32648  0.17365  0.68198  1.0000
  I   I252      1.0  0.19023  0.62205  0.80032  1.0000
  I   I253      1.0  0.90384  0.08457  0.29352  1.0000
  I   I254      1.0  0.99409  0.99974  0.67774  1.0000
  I   I255      1.0  0.91174  0.93485  0.45318  1.0000
  I   I256      1.0  0.66132  0.00118  0.95819  1.0000
  I   I257      1.0  0.28860  0.07721  0.56052  1.0000
  I   I258      1.0  0.63846  0.84900  0.92775  1.0000
  I   I259      1.0  0.54281  0.62491  0.95202  1.0000
  I   I260      1.0  0.74165  0.51953  0.99411  1.0000
  I   I261      1.0  0.25325  0.86246  0.33683  1.0000
  I   I262      1.0  0.61065  0.80151  0.28294  1.0000
  I   I263      1.0  0.37601  0.16250  0.36630  1.0000
  I   I264      1.0  0.24995  0.80722  0.91198  1.0000
  I   I265      1.0  0.51245  0.92905  0.62390  1.0000
  I   I266      1.0  0.39542  0.76822  0.91950  1.0000
  I   I267      1.0  0.80839  0.18244  0.76472  1.0000
  I   I268      1.0  0.72832  0.53661  0.24573  1.0000
  I   I269      1.0  0.01850  0.88070  0.07795  1.0000
  I   I270      1.0  0.40970  0.99128  0.67455  1.0000
  I   I271      1.0  0.16471  0.49825  0.04697  1.0000
  I   I272      1.0  0.88293  0.33117  0.86926  1.0000
  I   I273      1.0  0.11839  0.81243  0.56096  1.0000
  I   I274      1.0  0.35300  0.31443  0.53431  1.0000
  I   I275      1.0  0.76215  0.57540  0.60900  1.0000
  I   I276      1.0  0.07612  0.05478  0.11365  1.0000
  I   I277      1.0  0.25456  0.40508  0.48441  1.0000
  I   I278      1.0  0.36381  0.41811  0.18541  1.0000
  I   I279      1.0  0.84210  0.56757  0.17777  1.0000
  I   I280      1.0  0.46141  0.43620  0.35053  1.0000
  I   I281      1.0  0.49492  0.42612  0.68211  1.0000
  I   I282      1.0  0.13519  0.15472  0.46548  1.0000
  I   I283      1.0  0.29672  0.89948  0.06892  1.0000
  I   I284      1.0  0.87633  0.64457  0.89467  1.0000
  I   I285      1.0  0.20672  0.73266  0.50999  1.0000
  I   I286      1.0  0.75571  0.31016  0.46600  1.0000
  I   I287      1.0  0.31750  0.54652  0.43725  1.0000
  I   I288      1.0  0.76740  0.12919  0.14728  1.0000
  I   I289      1.0  0.97595  0.20829  0.29175  1.0000
  I   I290      1.0  0.05912  0.36711  0.60599  1.0000
  I   I291      1.0  0.91675  0.10725  0.03425  1.0000
  I   I292      1.0  0.80228  0.15017  0.44614  1.0000
  I   I293      1.0  0.43292  0.73256  0.36382  1.0000
  I   I294      1.0  0.89072  0.84519  0.04121  1.0000
  I   I295      1.0  0.93694  0.38811  0.48002  1.0000
  I   I296      1.0  0.00075  0.35655  0.85863  1.0000
  I   I297      1.0  0.14602  0.14282  0.95991  1.0000
  I   I298      1.0  0.62754  0.33049  0.55094  1.0000
  I   I299      1.0  0.02574  0.69495  0.44157  1.0000
  I   I300      1.0  0.26555  0.58169  0.87784  1.0000
  I   I301      1.0  0.88460  0.90665  0.36667  1.0000
  I   I302      1.0  0.98319  0.09429  0.28785  1.0000
  I   I303      1.0  0.22631  0.34430  0.75513  1.0000
  I   I304      1.0  0.65950  0.82789  0.81176  1.0000
  I   I305      1.0  0.97365  0.81505  0.43519  1.0000
  I   I306      1.0  0.51832  0.11444  0.97427  1.0000
  I   I307      1.0  0.51180  0.64538  0.73741  1.0000
  I   I308      1.0  0.22658  0.11170  0.73713  1.0000
  I   I309      1.0  0.17811  0.87395  0.34138  1.0000
  I   I310      1.0  0.38147  0.90937  0.08011  1.0000
  I   I311      1.0  0.43154  0.16707  0.53269  1.0000
  I   I312      1.0  0.06857  0.18926  0.07531  1.0000
  I   I313      1.0  0.72612  0.24538  0.74116  1.0000
  I   I314      1.0  0.55184  0.85263  0.55111  1.0000
  I   I315      1.0  0.33972  0.76560  0.77066  1.0000
  I   I316      1.0  0.42335  0.02221  0.78091  1.0000
  I   I317      1.0  0.77693  0.57005  0.40811  1.0000
  I   I318      1.0  0.02009  0.81998  0.03807  1.0000
  I   I319      1.0  0.71653  0.41586  0.91845  1.0000
  I   I320      1.0  0.82413  0.39374  0.19208  1.0000
  I   I321      1.0  0.93309  0.28369  0.82658  1.0000
  I   I322      1.0  0.32325  0.28635  0.46261  1.0000
  I   I323      1.0  0.71016  0.63457  0.59951  1.0000
  I   I324      1.0  0.01474  0.11861  0.10082  1.0000
  I   I325      1.0  0.19195  0.28674  0.52103  1.0000
  I   I326      1.0  0.46663  0.21418  0.86986  1.0000
  I   I327      1.0  0.84553  0.61352  0.14572  1.0000
  I   I328      1.0  0.22752  0.39823  0.71189  1.0000
  I   I329      1.0  0.43457  0.49197  0.58500  1.0000
  I   I330      1.0  0.12095  0.17175  0.35857  1.0000
  I   I331      1.0  0.25669  0.67649  0.53996  1.0000
  I   I332      1.0  0.64671  0.26448  0.58317  1.0000
  I   I333      1.0  0.79801  0.61706  0.77356  1.0000
  I   I334      1.0  0.74101  0.19304  0.16898  1.0000
  I   I335      1.0  0.71685  0.37695  0.47224  1.0000
  I   I336      1.0  0.29470  0.60700  0.45247  1.0000
  I   I337      1.0  0.14013  0.83605  0.01002  1.0000
  I   I338      1.0  0.05115  0.31730  0.53016  1.0000
  I   I339      1.0  0.89730  0.09142  0.87889  1.0000
  I   I340      1.0  0.81171  0.34758  0.30897  1.0000
  I   I341      1.0  0.51153  0.85825  0.14111  1.0000
  I   I342      1.0  0.81767  0.84058  0.03493  1.0000
  I   I343      1.0  0.90438  0.38043  0.58799  1.0000
  I   I344      1.0  0.98663  0.42699  0.86780  1.0000
  I   I345      1.0  0.22110  0.00977  0.98958  1.0000
  I   I346      1.0  0.35685  0.86343  0.16650  1.0000
  I   I347      1.0  0.40001  0.22522  0.19822  1.0000
  I   I348      1.0  0.17571  0.56639  0.79051  1.0000
  I   I349      1.0  0.86155  0.92328  0.47010  1.0000
  I   I350      1.0  0.87397  0.11946  0.39498  1.0000
  I   I351      1.0  0.99606  0.04725  0.71204  1.0000
  I   I352      1.0  0.59130  0.83084  0.87753  1.0000
  I   I353      1.0  0.69978  0.94092  0.95673  1.0000
  I   I354      1.0  0.45458  0.15239  0.93927  1.0000
  I   I355      1.0  0.49531  0.60549  0.75882  1.0000
  I   I356      1.0  0.71420  0.58521  0.99816  1.0000
  I   I357      1.0  0.38236  0.81785  0.87521  1.0000
  I   I358      1.0  0.22863  0.85960  0.01400  1.0000
  I   I359      1.0  0.37008  0.17016  0.50994  1.0000
  I   I360      1.0  0.08145  0.17677  0.96910  1.0000
  I   I361      1.0  0.75594  0.20126  0.82310  1.0000
  I   I362      1.0  0.55993  0.91833  0.47340  1.0000
  I   I363      1.0  0.32566  0.79757  0.90984  1.0000
  I   I364      1.0  0.43370  0.94443  0.86653  1.0000
  I   I365      1.0  0.75463  0.58300  0.27201  1.0000
  I   I366      1.0  0.04302  0.83391  0.17429  1.0000
  I   I367      1.0  0.70718  0.37236  0.84995  1.0000
  I   I368      1.0  0.78184  0.40530  0.28911  1.0000
  I   I369      1.0  0.88623  0.27122  0.86001  1.0000
  I   I370      1.0  0.37595  0.30817  0.42607  1.0000
  I   I371      1.0  0.72316  0.55126  0.56479  1.0000
  I   I372      1.0  0.04874  0.02796  0.06658  1.0000
  I   I373      1.0  0.13772  0.35467  0.31848  1.0000
  I   I374      1.0  0.38679  0.43230  0.06423  1.0000
  I   I375      1.0  0.88184  0.55966  0.23744  1.0000
  I   I376      1.0  0.51460  0.39245  0.39977  1.0000
  I   I377      1.0  0.51308  0.47297  0.72054  1.0000
  I   I378      1.0  0.14594  0.11854  0.56758  1.0000
  I   I379      1.0  0.27478  0.65643  0.68686  1.0000
  I   I380      1.0  0.31750  0.55357  0.08039  1.0000
  I   I381      1.0  0.92571  0.59742  0.96996  1.0000
  I   I382      1.0  0.69968  0.16238  0.17096  1.0000
  I   I383      1.0  0.77831  0.35496  0.44820  1.0000
  I   I384      1.0  0.23680  0.61303  0.45237  1.0000
