data_image0
_chemical_formula_structural       Ti96I384
_chemical_formula_sum              "Ti96 I384"
_cell_length_a       76.9734
_cell_length_b       77.0403
_cell_length_c       37.6657
_cell_angle_alpha    88.7757
_cell_angle_beta     88.7757
_cell_angle_gamma    62.1586

_space_group_name_H-M_alt    "P 1"
_space_group_IT_number       1

loop_
  _space_group_symop_operation_xyz
  'x, y, z'

loop_
  _atom_site_type_symbol
  _atom_site_label
  _atom_site_symmetry_multiplicity
  _atom_site_fract_x
  _atom_site_fract_y
  _atom_site_fract_z
  _atom_site_occupancy
  Ti  Ti1       1.0  0.97587  0.73569  0.45933  1.0000
  Ti  Ti2       1.0  0.53484  0.79114  0.71666  1.0000
  Ti  Ti3       1.0  0.06952  0.18918  0.52968  1.0000
  Ti  Ti4       1.0  0.20419  0.17718  0.85985  1.0000
  Ti  Ti5       1.0  0.47311  0.03459  0.55629  1.0000
  Ti  Ti6       1.0  0.61736  0.58038  0.18840  1.0000
  Ti  Ti7       1.0  0.80105  0.83030  0.21091  1.0000
  Ti  Ti8       1.0  0.04301  0.07745  0.65549  1.0000
  Ti  Ti9       1.0  0.08910  0.39122  0.75344  1.0000
  Ti  Ti10      1.0  0.69131  0.59185  0.48725  1.0000
  Ti  Ti11      1.0  0.99667  0.00222  0.96907  1.0000
  Ti  Ti12      1.0  0.62082  0.90517  0.44367  1.0000
  Ti  Ti13      1.0  0.95754  0.55559  0.84108  1.0000
  Ti  Ti14      1.0  0.25235  0.17221  0.83041  1.0000
  Ti  Ti15      1.0  0.90366  0.22300  0.33782  1.0000
  Ti  Ti16      1.0  0.11393  0.97967  0.81847  1.0000
  Ti  Ti17      1.0  0.34094  0.40967  0.35912  1.0000
  Ti  Ti18      1.0  0.77915  0.19774  0.89950  1.0000
  Ti  Ti19      1.0  0.48894  0.28833  0.78517  1.0000
  Ti  Ti20      1.0  0.03810  0.74205  0.70176  1.0000
  Ti  Ti21      1.0  0.04599  0.09806  0.74445  1.0000
  Ti  Ti22      1.0  0.54536  0.49255  0.46372  1.0000
  Ti  Ti23      1.0  0.25071  0.43826  0.63170  1.0000
  Ti  Ti24      1.0  0.51131  0.28565  0.42534  1.0000
  Ti  Ti25      1.0  0.75093  0.36663  0.12434  1.0000
  Ti  Ti26      1.0  0.11994  0.74908  0.38046  1.0000
  Ti  Ti27      1.0  0.72815  0.82936  0.92189  1.0000
  Ti  Ti28      1.0  0.35989  0.96772  0.10836  1.0000
  Ti  Ti29      1.0  0.95705  0.01528  0.64260  1.0000
  Ti  Ti30      1.0  0.17228  0.30680  0.17901  1.0000
  Ti  Ti31      1.0  0.82195  0.18089  0.26676  1.0000
  Ti  Ti32      1.0  0.47229  0.68712  0.27113  1.0000
  Ti  Ti33      1.0  0.54402  0.29545  0.18105  1.0000
  Ti  Ti34      1.0  0.67974  0.41614  0.68234  1.0000
  Ti  Ti35      1.0  0.67866  0.82461  0.92684  1.0000
  Ti  Ti36      1.0  0.37124  0.20095  0.45533  1.0000
  Ti  Ti37      1.0  0.28511  0.29669  0.73771  1.0000
  Ti  Ti38      1.0  0.40285  0.33437  0.92308  1.0000
  Ti  Ti39      1.0  0.82920  0.45739  0.53866  1.0000
  Ti  Ti40      1.0  0.64856  0.63986  0.54123  1.0000
  Ti  Ti41      1.0  0.99050  0.68246  0.93683  1.0000
  Ti  Ti42      1.0  0.87412  0.67560  0.52233  1.0000
  Ti  Ti43      1.0  0.13495  0.84598  0.29048  1.0000
  Ti  Ti44      1.0  0.92837  0.26592  0.66620  1.0000
  Ti  Ti45      1.0  0.84736  0.52142  0.28431  1.0000
  Ti  Ti46      1.0  0.82074  0.36640  0.91358  1.0000
  Ti  Ti47      1.0  0.85674  0.09647  0.90812  1.0000
  Ti  Ti48      1.0  0.91728  0.98266  0.43877  1.0000
  Ti  Ti49      1.0  0.16147  0.86420  0.23025  1.0000
  Ti  Ti50      1.0  0.02513  0.52912  0.06603  1.0000
  Ti  Ti51      1.0  0.54377  0.76421  0.61465  1.0000
  Ti  Ti52      1.0  0.42610  0.53476  0.45451  1.0000
  Ti  Ti53      1.0  0.37107  0.68260  0.64319  1.0000
  Ti  Ti54      1.0  0.35608  0.82286  0.78587  1.0000
  Ti  Ti55      1.0  0.58236  0.65839  0.77555  1.0000
  Ti  Ti56      1.0  0.77206  0.99675  0.77707  1.0000
  Ti  Ti57      1.0  0.05444  0.41925  0.71626  1.0000
  Ti  Ti58      1.0  0.44043  0.22897  0.18758  1.0000
  Ti  Ti59      1.0  0.12754  0.93044  0.86045  1.0000
  Ti  Ti60      1.0  0.86079  0.18517  0.99472  1.0000
  Ti  Ti61      1.0  0.56881  0.15575  0.23427  1.0000
  Ti  Ti62      1.0  0.91208  0.58150  0.75942  1.0000
  Ti  Ti63      1.0  0.06969  0.67310  0.70107  1.0000
  Ti  Ti64      1.0  0.75091  0.22442  0.95038  1.0000
  Ti  Ti65      1.0  0.14289  0.45599  0.88592  1.0000
  Ti  Ti66      1.0  0.39506  0.99778  0.15404  1.0000
  Ti  Ti67      1.0  0.28863  0.40422  0.12245  1.0000
  Ti  Ti68      1.0  0.84136  0.09817  0.54739  1.0000
  Ti  Ti69      1.0  0.09415  0.72637  0.45843  1.0000
  Ti  Ti70      1.0  0.22347  0.99032  0.52003  1.0000
  Ti  Ti71      1.0  0.23025  0.65031  0.29278  1.0000
  Ti  Ti72      1.0  0.86557  0.07461  0.83028  1.0000
  Ti  Ti73      1.0  0.63508  0.36101  0.34423  1.0000
  Ti  Ti74      1.0  0.70990  0.40830  0.20286  1.0000
  Ti  Ti75      1.0  0.87030  0.71876  0.25568  1.0000
  Ti  Ti76      1.0  0.69468  0.04235  0.35611  1.0000
  Ti  Ti77      1.0  0.91201  0.23388  0.24913  1.0000
  Ti  Ti78      1.0  0.99625  0.00502  0.69189  1.0000
  Ti  Ti79      1.0  0.46212  0.89458  0.39319  1.0000
  Ti  Ti80      1.0  0.75954  0.70120  0.53619  1.0000
  Ti  Ti81      1.0  0.19827  0.46160  0.58010  1.0000
  Ti  Ti82      1.0  0.69887  0.54129  0.71003  1.0000
  Ti  Ti83      1.0  0.81466  0.55950  0.24584  1.0000
  Ti  Ti84      1.0  0.30820  0.25030  0.46686  1.0000
  Ti  Ti85      1.0  0.28140  0.32554  0.67116  1.0000
  Ti  Ti86      1.0  0.75564  0.82732  0.22071  1.0000
  Ti  Ti87      1.0  0.68240  0.69946  0.38666  1.0000
  Ti  Ti88      1.0  0.11367  0.88422  0.61661  1.0000
  Ti  Ti89      1.0  0.99165  0.54246  0.56574  1.0000
  Ti  Ti90      1.0  0.22773  0.26325  0.98154  1.0000
  Ti  Ti91      1.0  0.69821  0.26109  0.66652  1.0000
  Ti  Ti92      1.0  0.32953  0.59109  0.15925  1.0000
  Ti  Ti93      1.0  0.33027  0.57044  0.74424  1.0000
  Ti  Ti94      1.0  0.88464  0.97649  0.45208  1.0000
  Ti  Ti95      1.0  0.53168  0.12102  0.70558  1.0000
  Ti  Ti96      1.0  0.50274  0.47288  0.53773  1.0000
  I   I1        1.0  0.87818  0.07451  0.76363  1.0000
  I   I2        1.0  0.52244  0.79909  0.64723  1.0000
  I   I3        1.0  0.15486  0.89570  0.18972  1.0000
  I   I4        1.0  0.33492  0.70635  0.65096  1.0000
  I   I5        1.0  0.62259  0.55709  0.13703  1.0000
  I   I6        1.0  0.35807  0.78676  0.79435  1.0000
  I   I7        1.0  0.03730  0.13481  0.74684  1.0000
  I   I8        1.0  0.73822  0.00302  0.80827  1.0000
  I   I9        1.0  0.08104  0.43300  0.72894  1.0000
  I   I10       1.0  0.63315  0.62452  0.57969  1.0000
  I   I11       1.0  0.01869  0.01592  0.92898  1.0000
  I   I12       1.0  0.47692  0.05839  0.59537  1.0000
  I   I13       1.0  0.91377  0.55159  0.71779  1.0000
  I   I14       1.0  0.09308  0.66325  0.63773  1.0000
  I   I15       1.0  0.91803  0.19838  0.28347  1.0000
  I   I16       1.0  0.67372  0.63818  0.59180  1.0000
  I   I17       1.0  0.35762  0.99567  0.15793  1.0000
  I   I18       1.0  0.73081  0.23099  0.00625  1.0000
  I   I19       1.0  0.06982  0.71527  0.66788  1.0000
  I   I20       1.0  0.00482  0.99533  0.03707  1.0000
  I   I21       1.0  0.07270  0.06155  0.61502  1.0000
  I   I22       1.0  0.23648  0.42070  0.58494  1.0000
  I   I23       1.0  0.11440  0.90698  0.66209  1.0000
  I   I24       1.0  0.22964  0.01959  0.54506  1.0000
  I   I25       1.0  0.75394  0.39228  0.08177  1.0000
  I   I26       1.0  0.90461  0.68754  0.24714  1.0000
  I   I27       1.0  0.70141  0.84232  0.86948  1.0000
  I   I28       1.0  0.33345  0.95735  0.12152  1.0000
  I   I29       1.0  0.96360  0.04432  0.66035  1.0000
  I   I30       1.0  0.18348  0.29843  0.10852  1.0000
  I   I31       1.0  0.78546  0.66352  0.52687  1.0000
  I   I32       1.0  0.20300  0.45716  0.51243  1.0000
  I   I33       1.0  0.48156  0.91897  0.38744  1.0000
  I   I34       1.0  0.71461  0.79490  0.92289  1.0000
  I   I35       1.0  0.28358  0.25873  0.41221  1.0000
  I   I36       1.0  0.67803  0.38837  0.63696  1.0000
  I   I37       1.0  0.26108  0.36245  0.64776  1.0000
  I   I38       1.0  0.82693  0.46846  0.47023  1.0000
  I   I39       1.0  0.27337  0.29864  0.80862  1.0000
  I   I40       1.0  0.93925  0.26999  0.59899  1.0000
  I   I41       1.0  0.01161  0.54439  0.13797  1.0000
  I   I42       1.0  0.63238  0.67876  0.51433  1.0000
  I   I43       1.0  0.43820  0.25369  0.23535  1.0000
  I   I44       1.0  0.96172  0.23567  0.68253  1.0000
  I   I45       1.0  0.86745  0.52509  0.33602  1.0000
  I   I46       1.0  0.52998  0.09214  0.74092  1.0000
  I   I47       1.0  0.83214  0.11054  0.96006  1.0000
  I   I48       1.0  0.88206  0.01095  0.49263  1.0000
  I   I49       1.0  0.12124  0.89255  0.25190  1.0000
  I   I50       1.0  0.51318  0.82862  0.72195  1.0000
  I   I51       1.0  0.56405  0.79623  0.69741  1.0000
  I   I52       1.0  0.72877  0.71158  0.57826  1.0000
  I   I53       1.0  0.38597  0.69322  0.70144  1.0000
  I   I54       1.0  0.32853  0.84135  0.83237  1.0000
  I   I55       1.0  0.73199  0.82198  0.25596  1.0000
  I   I56       1.0  0.02075  0.06918  0.61753  1.0000
  I   I57       1.0  0.50469  0.12237  0.65641  1.0000
  I   I58       1.0  0.68019  0.56364  0.48687  1.0000
  I   I59       1.0  0.13875  0.95753  0.87663  1.0000
  I   I60       1.0  0.84181  0.17206  0.03535  1.0000
  I   I61       1.0  0.98640  0.56511  0.82663  1.0000
  I   I62       1.0  0.88920  0.61246  0.72159  1.0000
  I   I63       1.0  0.04480  0.70288  0.74335  1.0000
  I   I64       1.0  0.08541  0.00843  0.79008  1.0000
  I   I65       1.0  0.11639  0.48863  0.86173  1.0000
  I   I66       1.0  0.38745  0.93766  0.13520  1.0000
  I   I67       1.0  0.45257  0.29663  0.77613  1.0000
  I   I68       1.0  0.01436  0.76772  0.65235  1.0000
  I   I69       1.0  0.11722  0.70910  0.39475  1.0000
  I   I70       1.0  0.23565  0.98693  0.45576  1.0000
  I   I71       1.0  0.22573  0.47245  0.59250  1.0000
  I   I72       1.0  0.89086  0.08597  0.94535  1.0000
  I   I73       1.0  0.73042  0.85651  0.95869  1.0000
  I   I74       1.0  0.15034  0.73753  0.42264  1.0000
  I   I75       1.0  0.11850  0.78328  0.37066  1.0000
  I   I76       1.0  0.87997  0.23453  0.20602  1.0000
  I   I77       1.0  0.87341  0.21471  0.36517  1.0000
  I   I78       1.0  0.82753  0.18198  0.33636  1.0000
  I   I79       1.0  0.50761  0.30450  0.19109  1.0000
  I   I80       1.0  0.95611  0.74574  0.52437  1.0000
  I   I81       1.0  0.44671  0.72205  0.29791  1.0000
  I   I82       1.0  0.70736  0.50892  0.65928  1.0000
  I   I83       1.0  0.82400  0.57822  0.30073  1.0000
  I   I84       1.0  0.38983  0.21490  0.49453  1.0000
  I   I85       1.0  0.29979  0.31799  0.60933  1.0000
  I   I86       1.0  0.39188  0.97422  0.08868  1.0000
  I   I87       1.0  0.83038  0.42425  0.51743  1.0000
  I   I88       1.0  0.69481  0.58325  0.42219  1.0000
  I   I89       1.0  0.67364  0.45072  0.65110  1.0000
  I   I90       1.0  0.02211  0.49586  0.06497  1.0000
  I   I91       1.0  0.68935  0.23447  0.69261  1.0000
  I   I92       1.0  0.31281  0.60520  0.09583  1.0000
  I   I93       1.0  0.90229  0.26544  0.71311  1.0000
  I   I94       1.0  0.91977  0.95455  0.48768  1.0000
  I   I95       1.0  0.83375  0.35039  0.97786  1.0000
  I   I96       1.0  0.55258  0.52488  0.45073  1.0000
  I   I97       1.0  0.06307  0.16130  0.55774  1.0000
  I   I98       1.0  0.96746  0.71414  0.42382  1.0000
  I   I99       1.0  0.53618  0.78885  0.55506  1.0000
  I   I100      1.0  0.22983  0.19979  0.88274  1.0000
  I   I101      1.0  0.07663  0.89966  0.59502  1.0000
  I   I102      1.0  0.46979  0.05197  0.49344  1.0000
  I   I103      1.0  0.75319  0.85934  0.25097  1.0000
  I   I104      1.0  0.55179  0.69126  0.80139  1.0000
  I   I105      1.0  0.08415  0.38090  0.67590  1.0000
  I   I106      1.0  0.62571  0.91242  0.51177  1.0000
  I   I107      1.0  0.72985  0.57616  0.50104  1.0000
  I   I108      1.0  0.59835  0.88976  0.45549  1.0000
  I   I109      1.0  0.90171  0.24453  0.39953  1.0000
  I   I110      1.0  0.98838  0.52609  0.87933  1.0000
  I   I111      1.0  0.09831  0.67093  0.74426  1.0000
  I   I112      1.0  0.72631  0.25450  0.91346  1.0000
  I   I113      1.0  0.14199  0.46785  0.94997  1.0000
  I   I114      1.0  0.31724  0.39795  0.32582  1.0000
  I   I115      1.0  0.26028  0.40381  0.09177  1.0000
  I   I116      1.0  0.30584  0.37197  0.15898  1.0000
  I   I117      1.0  0.82332  0.09639  0.49044  1.0000
  I   I118      1.0  0.46355  0.50319  0.53856  1.0000
  I   I119      1.0  0.30869  0.41954  0.09233  1.0000
  I   I120      1.0  0.83538  0.11179  0.83920  1.0000
  I   I121      1.0  0.63056  0.38656  0.29235  1.0000
  I   I122      1.0  0.79333  0.34343  0.11858  1.0000
  I   I123      1.0  0.87973  0.74048  0.28999  1.0000
  I   I124      1.0  0.18092  0.33401  0.19992  1.0000
  I   I125      1.0  0.65858  0.04304  0.34147  1.0000
  I   I126      1.0  0.01553  0.00868  0.63342  1.0000
  I   I127      1.0  0.55087  0.31027  0.12067  1.0000
  I   I128      1.0  0.21276  0.16067  0.92512  1.0000
  I   I129      1.0  0.18401  0.43834  0.59310  1.0000
  I   I130      1.0  0.33100  0.21053  0.48391  1.0000
  I   I131      1.0  0.66421  0.53715  0.70315  1.0000
  I   I132      1.0  0.65610  0.81619  0.96698  1.0000
  I   I133      1.0  0.79967  0.47879  0.58061  1.0000
  I   I134      1.0  0.41472  0.30063  0.94966  1.0000
  I   I135      1.0  0.38802  0.01568  0.21852  1.0000
  I   I136      1.0  0.88201  0.66495  0.58791  1.0000
  I   I137      1.0  0.44773  0.54874  0.43072  1.0000
  I   I138      1.0  0.98456  0.57732  0.52916  1.0000
  I   I139      1.0  0.66704  0.27315  0.62653  1.0000
  I   I140      1.0  0.36388  0.58568  0.15166  1.0000
  I   I141      1.0  0.31948  0.55229  0.79269  1.0000
  I   I142      1.0  0.89016  0.94795  0.40795  1.0000
  I   I143      1.0  0.06928  0.21447  0.57286  1.0000
  I   I144      1.0  0.51376  0.50232  0.51821  1.0000
  I   I145      1.0  0.96062  0.76933  0.42484  1.0000
  I   I146      1.0  0.54478  0.77564  0.78116  1.0000
  I   I147      1.0  0.02812  0.20183  0.53476  1.0000
  I   I148      1.0  0.38847  0.55301  0.42367  1.0000
  I   I149      1.0  0.43921  0.03788  0.57214  1.0000
  I   I150      1.0  0.62999  0.56455  0.24741  1.0000
  I   I151      1.0  0.59203  0.67812  0.72575  1.0000
  I   I152      1.0  0.08160  0.07968  0.72184  1.0000
  I   I153      1.0  0.11322  0.40178  0.79271  1.0000
  I   I154      1.0  0.15853  0.81341  0.33430  1.0000
  I   I155      1.0  0.96207  0.03629  0.95225  1.0000
  I   I156      1.0  0.85459  0.21728  0.02630  1.0000
  I   I157      1.0  0.94779  0.21034  0.22929  1.0000
  I   I158      1.0  0.05261  0.64892  0.72296  1.0000
  I   I159      1.0  0.53032  0.16354  0.23824  1.0000
  I   I160      1.0  0.74744  0.18956  0.91692  1.0000
  I   I161      1.0  0.37986  0.38570  0.33996  1.0000
  I   I162      1.0  0.81306  0.18034  0.87215  1.0000
  I   I163      1.0  0.48796  0.31088  0.73115  1.0000
  I   I164      1.0  0.82210  0.11940  0.60078  1.0000
  I   I165      1.0  0.05768  0.05129  0.70705  1.0000
  I   I166      1.0  0.48556  0.46104  0.49084  1.0000
  I   I167      1.0  0.27034  0.45957  0.61504  1.0000
  I   I168      1.0  0.53041  0.30213  0.45798  1.0000
  I   I169      1.0  0.68830  0.44788  0.17570  1.0000
  I   I170      1.0  0.70942  0.39037  0.13311  1.0000
  I   I171      1.0  0.75113  0.80725  0.97995  1.0000
  I   I172      1.0  0.70602  0.01360  0.40700  1.0000
  I   I173      1.0  0.99285  0.02175  0.75189  1.0000
  I   I174      1.0  0.13493  0.31808  0.18442  1.0000
  I   I175      1.0  0.82068  0.21710  0.24235  1.0000
  I   I176      1.0  0.50667  0.67493  0.30858  1.0000
  I   I177      1.0  0.47998  0.85895  0.36993  1.0000
  I   I178      1.0  0.69523  0.55230  0.64220  1.0000
  I   I179      1.0  0.78167  0.57620  0.22138  1.0000
  I   I180      1.0  0.38661  0.17817  0.51090  1.0000
  I   I181      1.0  0.31077  0.31168  0.72371  1.0000
  I   I182      1.0  0.80608  0.85649  0.23823  1.0000
  I   I183      1.0  0.71112  0.66467  0.41115  1.0000
  I   I184      1.0  0.13003  0.89466  0.56503  1.0000
  I   I185      1.0  0.95876  0.54695  0.58491  1.0000
  I   I186      1.0  0.89834  0.67664  0.47486  1.0000
  I   I187      1.0  0.31346  0.61421  0.21208  1.0000
  I   I188      1.0  0.92673  0.29465  0.69925  1.0000
  I   I189      1.0  0.69195  0.72061  0.42356  1.0000
  I   I190      1.0  0.85231  0.35593  0.86859  1.0000
  I   I191      1.0  0.22208  0.29939  0.96776  1.0000
  I   I192      1.0  0.10670  0.16419  0.52124  1.0000
  I   I193      1.0  0.92156  0.02037  0.64557  1.0000
  I   I194      1.0  0.00646  0.55771  0.02407  1.0000
  I   I195      1.0  0.07022  0.20262  0.46529  1.0000
  I   I196      1.0  0.18788  0.15428  0.85381  1.0000
  I   I197      1.0  0.43323  0.25645  0.13835  1.0000
  I   I198      1.0  0.63669  0.59733  0.16997  1.0000
  I   I199      1.0  0.47091  0.65371  0.28380  1.0000
  I   I200      1.0  0.78126  0.96231  0.74967  1.0000
  I   I201      1.0  0.05529  0.42163  0.78924  1.0000
  I   I202      1.0  0.16119  0.90846  0.82491  1.0000
  I   I203      1.0  0.13436  0.72845  0.32417  1.0000
  I   I204      1.0  0.60070  0.93006  0.39251  1.0000
  I   I205      1.0  0.94031  0.57796  0.89349  1.0000
  I   I206      1.0  0.17821  0.21127  0.87650  1.0000
  I   I207      1.0  0.91067  0.26582  0.22088  1.0000
  I   I208      1.0  0.09102  0.97855  0.87614  1.0000
  I   I209      1.0  0.33906  0.41893  0.42610  1.0000
  I   I210      1.0  0.47520  0.89144  0.46262  1.0000
  I   I211      1.0  0.18546  0.01269  0.51954  1.0000
  I   I212      1.0  0.06136  0.75655  0.72795  1.0000
  I   I213      1.0  0.06147  0.75207  0.49556  1.0000
  I   I214      1.0  0.57801  0.47535  0.49952  1.0000
  I   I215      1.0  0.27708  0.41371  0.68279  1.0000
  I   I216      1.0  0.33160  0.60044  0.76951  1.0000
  I   I217      1.0  0.74309  0.33885  0.10318  1.0000
  I   I218      1.0  0.83968  0.71796  0.29831  1.0000
  I   I219      1.0  0.65448  0.36259  0.40044  1.0000
  I   I220      1.0  0.87163  0.25281  0.31209  1.0000
  I   I221      1.0  0.98263  0.97693  0.62161  1.0000
  I   I222      1.0  0.73517  0.02670  0.33617  1.0000
  I   I223      1.0  0.85724  0.16054  0.24225  1.0000
  I   I224      1.0  0.48600  0.67061  0.20794  1.0000
  I   I225      1.0  0.55354  0.31516  0.23092  1.0000
  I   I226      1.0  0.71971  0.50533  0.74732  1.0000
  I   I227      1.0  0.65431  0.83596  0.87617  1.0000
  I   I228      1.0  0.37129  0.18050  0.39883  1.0000
  I   I229      1.0  0.32232  0.44760  0.33283  1.0000
  I   I230      1.0  0.38466  0.37295  0.93640  1.0000
  I   I231      1.0  0.85750  0.45944  0.57093  1.0000
  I   I232      1.0  0.29144  0.15348  0.82378  1.0000
  I   I233      1.0  0.99802  0.66263  0.99495  1.0000
  I   I234      1.0  0.25687  0.24033  0.94021  1.0000
  I   I235      1.0  0.12044  0.86624  0.34578  1.0000
  I   I236      1.0  0.32337  0.57064  0.67887  1.0000
  I   I237      1.0  0.72748  0.24823  0.61776  1.0000
  I   I238      1.0  0.53855  0.15372  0.68532  1.0000
  I   I239      1.0  0.50941  0.45472  0.60076  1.0000
  I   I240      1.0  0.94516  0.98953  0.47017  1.0000
  I   I241      1.0  0.00669  0.74115  0.46817  1.0000
  I   I242      1.0  0.55599  0.74769  0.68224  1.0000
  I   I243      1.0  0.80970  0.34078  0.91077  1.0000
  I   I244      1.0  0.12594  0.84613  0.61107  1.0000
  I   I245      1.0  0.36670  0.65835  0.69578  1.0000
  I   I246      1.0  0.58379  0.60716  0.20847  1.0000
  I   I247      1.0  0.77831  0.79547  0.18005  1.0000
  I   I248      1.0  0.05543  0.08534  0.81418  1.0000
  I   I249      1.0  0.11219  0.35610  0.75217  1.0000
  I   I250      1.0  0.14132  0.97997  0.77253  1.0000
  I   I251      1.0  0.97010  0.99116  0.95706  1.0000
  I   I252      1.0  0.84650  0.19190  0.93089  1.0000
  I   I253      1.0  0.94001  0.58926  0.79106  1.0000
  I   I254      1.0  0.25673  0.19977  0.78834  1.0000
  I   I255      1.0  0.57734  0.13060  0.18128  1.0000
  I   I256      1.0  0.18153  0.43693  0.86825  1.0000
  I   I257      1.0  0.29984  0.25647  0.74251  1.0000
  I   I258      1.0  0.76289  0.20150  0.83620  1.0000
  I   I259      1.0  0.27476  0.42534  0.18037  1.0000
  I   I260      1.0  0.85228  0.12243  0.51643  1.0000
  I   I261      1.0  0.01765  0.10140  0.70724  1.0000
  I   I262      1.0  0.53673  0.49448  0.39677  1.0000
  I   I263      1.0  0.20820  0.66660  0.23888  1.0000
  I   I264      1.0  0.35973  0.22973  0.40470  1.0000
  I   I265      1.0  0.74508  0.36727  0.19754  1.0000
  I   I266      1.0  0.08788  0.76359  0.42864  1.0000
  I   I267      1.0  0.66051  0.32764  0.32162  1.0000
  I   I268      1.0  0.35871  0.96925  0.03072  1.0000
  I   I269      1.0  0.02038  0.97268  0.72105  1.0000
  I   I270      1.0  0.38650  0.02813  0.11930  1.0000
  I   I271      1.0  0.80039  0.16661  0.25535  1.0000
  I   I272      1.0  0.16099  0.49260  0.59012  1.0000
  I   I273      1.0  0.57121  0.25497  0.17583  1.0000
  I   I274      1.0  0.97078  0.71713  0.97003  1.0000
  I   I275      1.0  0.66300  0.85971  0.96007  1.0000
  I   I276      1.0  0.30258  0.28714  0.46618  1.0000
  I   I277      1.0  0.68042  0.57947  0.73812  1.0000
  I   I278      1.0  0.38476  0.33677  0.85753  1.0000
  I   I279      1.0  0.85698  0.48628  0.31464  1.0000
  I   I280      1.0  0.42819  0.49894  0.45009  1.0000
  I   I281      1.0  0.02679  0.65550  0.92028  1.0000
  I   I282      1.0  0.85107  0.70637  0.47793  1.0000
  I   I283      1.0  0.16093  0.83207  0.23665  1.0000
  I   I284      1.0  0.54138  0.25781  0.40276  1.0000
  I   I285      1.0  0.68485  0.69129  0.31658  1.0000
  I   I286      1.0  0.51275  0.14984  0.74945  1.0000
  I   I287      1.0  0.84145  0.07223  0.89232  1.0000
  I   I288      1.0  0.88553  0.00056  0.39635  1.0000
  I   I289      1.0  0.18201  0.86824  0.28151  1.0000
  I   I290      1.0  0.24338  0.25610  0.04385  1.0000
  I   I291      1.0  0.51870  0.74984  0.60227  1.0000
  I   I292      1.0  0.40866  0.55016  0.51147  1.0000
  I   I293      1.0  0.38124  0.68124  0.57791  1.0000
  I   I294      1.0  0.35376  0.84534  0.72933  1.0000
  I   I295      1.0  0.83796  0.80681  0.20828  1.0000
  I   I296      1.0  0.76412  0.02020  0.72293  1.0000
  I   I297      1.0  0.04777  0.38888  0.74189  1.0000
  I   I298      1.0  0.40699  0.22697  0.20053  1.0000
  I   I299      1.0  0.12091  0.94673  0.78712  1.0000
  I   I300      1.0  0.37239  0.53986  0.74469  1.0000
  I   I301      1.0  0.59034  0.14715  0.29359  1.0000
  I   I302      1.0  0.95396  0.53632  0.78164  1.0000
  I   I303      1.0  0.68635  0.63216  0.50215  1.0000
  I   I304      1.0  0.79027  0.19590  0.97782  1.0000
  I   I305      1.0  0.13785  0.90642  0.91704  1.0000
  I   I306      1.0  0.79934  0.83894  0.14125  1.0000
  I   I307      1.0  0.51142  0.29955  0.81845  1.0000
  I   I308      1.0  0.01591  0.74645  0.75493  1.0000
  I   I309      1.0  0.05175  0.10980  0.63493  1.0000
  I   I310      1.0  0.10309  0.84911  0.27307  1.0000
  I   I311      1.0  0.25212  0.61520  0.26960  1.0000
  I   I312      1.0  0.89871  0.05228  0.86761  1.0000
  I   I313      1.0  0.60468  0.35548  0.37391  1.0000
  I   I314      1.0  0.69079  0.39908  0.24332  1.0000
  I   I315      1.0  0.85807  0.72694  0.19107  1.0000
  I   I316      1.0  0.68414  0.06929  0.39883  1.0000
  I   I317      1.0  0.42919  0.96108  0.16716  1.0000
  I   I318      1.0  0.95190  0.01624  0.56898  1.0000
  I   I319      1.0  0.42767  0.90461  0.40396  1.0000
  I   I320      1.0  0.21957  0.17996  0.79733  1.0000
  I   I321      1.0  0.56167  0.64630  0.73636  1.0000
  I   I322      1.0  0.64658  0.42663  0.70538  1.0000
  I   I323      1.0  0.88327  0.50123  0.25058  1.0000
  I   I324      1.0  0.28096  0.25838  0.51360  1.0000
  I   I325      1.0  0.25967  0.33330  0.73590  1.0000
  I   I326      1.0  0.79166  0.81166  0.26298  1.0000
  I   I327      1.0  0.82687  0.52393  0.21609  1.0000
  I   I328      1.0  0.63648  0.63402  0.47656  1.0000
  I   I329      1.0  0.00845  0.55068  0.61571  1.0000
  I   I330      1.0  0.19351  0.26564  0.95728  1.0000
  I   I331      1.0  0.65267  0.70330  0.42415  1.0000
  I   I332      1.0  0.46546  0.19052  0.20505  1.0000
  I   I333      1.0  0.70055  0.41750  0.73473  1.0000
  I   I334      1.0  0.85572  0.97410  0.47860  1.0000
  I   I335      1.0  0.78443  0.39585  0.92847  1.0000
  I   I336      1.0  0.53762  0.45481  0.50236  1.0000
  I   I337      1.0  0.19302  0.85592  0.18042  1.0000
  I   I338      1.0  0.06456  0.50990  0.06060  1.0000
  I   I339      1.0  0.57904  0.73672  0.59598  1.0000
  I   I340      1.0  0.77249  0.72277  0.56455  1.0000
  I   I341      1.0  0.51020  0.00385  0.54160  1.0000
  I   I342      1.0  0.39077  0.82314  0.80133  1.0000
  I   I343      1.0  0.61703  0.63989  0.80309  1.0000
  I   I344      1.0  0.80497  0.99308  0.80397  1.0000
  I   I345      1.0  0.03447  0.43975  0.66682  1.0000
  I   I346      1.0  0.22995  0.96211  0.56010  1.0000
  I   I347      1.0  0.10934  0.90904  0.83356  1.0000
  I   I348      1.0  0.89416  0.17036  0.97420  1.0000
  I   I349      1.0  0.56684  0.18694  0.20438  1.0000
  I   I350      1.0  0.89312  0.57987  0.81769  1.0000
  I   I351      1.0  0.24976  0.13523  0.83957  1.0000
  I   I352      1.0  0.78028  0.23384  0.89953  1.0000
  I   I353      1.0  0.15123  0.41748  0.89634  1.0000
  I   I354      1.0  0.73804  0.84320  0.16341  1.0000
  I   I355      1.0  0.51478  0.25750  0.74796  1.0000
  I   I356      1.0  0.86872  0.06360  0.55379  1.0000
  I   I357      1.0  0.07816  0.70507  0.43563  1.0000
  I   I358      1.0  0.50088  0.27352  0.48205  1.0000
  I   I359      1.0  0.22348  0.64040  0.36090  1.0000
  I   I360      1.0  0.85134  0.05243  0.80437  1.0000
  I   I361      1.0  0.76044  0.81728  0.88092  1.0000
  I   I362      1.0  0.72990  0.41840  0.24654  1.0000
  I   I363      1.0  0.11659  0.71738  0.51206  1.0000
  I   I364      1.0  0.19672  0.28269  0.22951  1.0000
  I   I365      1.0  0.92673  0.24004  0.31355  1.0000
  I   I366      1.0  0.96394  0.00410  0.71870  1.0000
  I   I367      1.0  0.44635  0.91781  0.32984  1.0000
  I   I368      1.0  0.73529  0.72519  0.48814  1.0000
  I   I369      1.0  0.22135  0.45275  0.67732  1.0000
  I   I370      1.0  0.96903  0.67326  0.90313  1.0000
  I   I371      1.0  0.83216  0.56956  0.19742  1.0000
  I   I372      1.0  0.48245  0.32091  0.40214  1.0000
  I   I373      1.0  0.27298  0.29744  0.65454  1.0000
  I   I374      1.0  0.43806  0.33086  0.89699  1.0000
  I   I375      1.0  0.80927  0.54011  0.31252  1.0000
  I   I376      1.0  0.23959  0.67417  0.32072  1.0000
  I   I377      1.0  0.01293  0.51054  0.53476  1.0000
  I   I378      1.0  0.85486  0.65546  0.52427  1.0000
  I   I379      1.0  0.70815  0.29154  0.67426  1.0000
  I   I380      1.0  0.32662  0.56099  0.17541  1.0000
  I   I381      1.0  0.65117  0.87996  0.41469  1.0000
  I   I382      1.0  0.94139  0.96511  0.38893  1.0000
  I   I383      1.0  0.57140  0.10006  0.72342  1.0000
  I   I384      1.0  0.87718  0.11132  0.86229  1.0000
