data_image0
_chemical_formula_structural       Ti96I384
_chemical_formula_sum              "Ti96 I384"
_cell_length_a       45.9564
_cell_length_b       45.7508
_cell_length_c       22.8452
_cell_angle_alpha    88.7757
_cell_angle_beta     88.7757
_cell_angle_gamma    62.1586

_space_group_name_H-M_alt    "P 1"
_space_group_IT_number       1

loop_
  _space_group_symop_operation_xyz
  'x, y, z'

loop_
  _atom_site_type_symbol
  _atom_site_label
  _atom_site_symmetry_multiplicity
  _atom_site_fract_x
  _atom_site_fract_y
  _atom_site_fract_z
  _atom_site_occupancy
  Ti  Ti1       1.0  0.29818  0.06568  0.68389  1.0000
  Ti  Ti2       1.0  0.21591  0.02027  0.08507  1.0000
  Ti  Ti3       1.0  0.30740  0.04681  0.33999  1.0000
  Ti  Ti4       1.0  0.24602  0.22422  0.28414  1.0000
  Ti  Ti5       1.0  0.18810  0.28090  0.61191  1.0000
  Ti  Ti6       1.0  0.21739  0.29149  0.93732  1.0000
  Ti  Ti7       1.0  0.03315  0.63861  0.52910  1.0000
  Ti  Ti8       1.0  0.92226  0.75172  0.78324  1.0000
  Ti  Ti9       1.0  0.00574  0.73490  0.25807  1.0000
  Ti  Ti10      1.0  0.95752  0.94619  0.22293  1.0000
  Ti  Ti11      1.0  0.14899  0.88776  0.58257  1.0000
  Ti  Ti12      1.0  0.14877  0.83601  0.85194  1.0000
  Ti  Ti13      1.0  0.45174  0.15401  0.27152  1.0000
  Ti  Ti14      1.0  0.43754  0.12703  0.58388  1.0000
  Ti  Ti15      1.0  0.42637  0.14157  0.93731  1.0000
  Ti  Ti16      1.0  0.36126  0.40104  0.88784  1.0000
  Ti  Ti17      1.0  0.21545  0.46486  0.10743  1.0000
  Ti  Ti18      1.0  0.44624  0.42454  0.62806  1.0000
  Ti  Ti19      1.0  0.26963  0.84322  0.32408  1.0000
  Ti  Ti20      1.0  0.46053  0.63689  0.91072  1.0000
  Ti  Ti21      1.0  0.27103  0.67589  0.35502  1.0000
  Ti  Ti22      1.0  0.33102  0.86620  0.71453  1.0000
  Ti  Ti23      1.0  0.47022  0.91152  0.09816  1.0000
  Ti  Ti24      1.0  0.50494  0.73937  0.62346  1.0000
  Ti  Ti25      1.0  0.65148  0.19542  0.44236  1.0000
  Ti  Ti26      1.0  0.65582  0.20780  0.79545  1.0000
  Ti  Ti27      1.0  0.66709  0.20635  0.13041  1.0000
  Ti  Ti28      1.0  0.60877  0.39379  0.09691  1.0000
  Ti  Ti29      1.0  0.71237  0.37885  0.55728  1.0000
  Ti  Ti30      1.0  0.66981  0.39389  0.79806  1.0000
  Ti  Ti31      1.0  0.61869  0.62795  0.29236  1.0000
  Ti  Ti32      1.0  0.70453  0.58550  0.65576  1.0000
  Ti  Ti33      1.0  0.69861  0.59312  0.99870  1.0000
  Ti  Ti34      1.0  0.73150  0.74288  0.18603  1.0000
  Ti  Ti35      1.0  0.73308  0.75103  0.50071  1.0000
  Ti  Ti36      1.0  0.73930  0.73807  0.85316  1.0000
  Ti  Ti37      1.0  0.88631  0.12899  0.12601  1.0000
  Ti  Ti38      1.0  0.86675  0.12467  0.47498  1.0000
  Ti  Ti39      1.0  0.86931  0.13989  0.79281  1.0000
  Ti  Ti40      1.0  0.97074  0.30177  0.01961  1.0000
  Ti  Ti41      1.0  0.98181  0.22058  0.36749  1.0000
  Ti  Ti42      1.0  0.10432  0.09579  0.60602  1.0000
  Ti  Ti43      1.0  0.94995  0.45341  0.32056  1.0000
  Ti  Ti44      1.0  0.91044  0.47184  0.63093  1.0000
  Ti  Ti45      1.0  0.91565  0.51825  0.93566  1.0000
  Ti  Ti46      1.0  0.78731  0.95138  0.26926  1.0000
  Ti  Ti47      1.0  0.74249  0.96992  0.57408  1.0000
  Ti  Ti48      1.0  0.68758  0.97438  0.88894  1.0000
  Ti  Ti49      1.0  0.28667  0.09300  0.51351  1.0000
  Ti  Ti50      1.0  0.18283  0.02473  0.94292  1.0000
  Ti  Ti51      1.0  0.21235  0.08165  0.23224  1.0000
  Ti  Ti52      1.0  0.18656  0.28926  0.13543  1.0000
  Ti  Ti53      1.0  0.09315  0.29862  0.49809  1.0000
  Ti  Ti54      1.0  0.14872  0.32456  0.79596  1.0000
  Ti  Ti55      1.0  0.99146  0.68950  0.41729  1.0000
  Ti  Ti56      1.0  0.98831  0.79565  0.73829  1.0000
  Ti  Ti57      1.0  0.92054  0.77035  0.12889  1.0000
  Ti  Ti58      1.0  0.96136  0.94427  0.04567  1.0000
  Ti  Ti59      1.0  0.95546  0.93732  0.39474  1.0000
  Ti  Ti60      1.0  0.13817  0.81873  0.67450  1.0000
  Ti  Ti61      1.0  0.41822  0.22032  0.07616  1.0000
  Ti  Ti62      1.0  0.39680  0.24335  0.39450  1.0000
  Ti  Ti63      1.0  0.40985  0.15849  0.75038  1.0000
  Ti  Ti64      1.0  0.36878  0.43313  0.71401  1.0000
  Ti  Ti65      1.0  0.24769  0.44653  0.93050  1.0000
  Ti  Ti66      1.0  0.16002  0.46413  0.24672  1.0000
  Ti  Ti67      1.0  0.27444  0.76431  0.28276  1.0000
  Ti  Ti68      1.0  0.36470  0.65906  0.96244  1.0000
  Ti  Ti69      1.0  0.25754  0.59368  0.27297  1.0000
  Ti  Ti70      1.0  0.40413  0.81286  0.62986  1.0000
  Ti  Ti71      1.0  0.47501  0.92872  0.93626  1.0000
  Ti  Ti72      1.0  0.45211  0.86734  0.21653  1.0000
  Ti  Ti73      1.0  0.59270  0.21307  0.27047  1.0000
  Ti  Ti74      1.0  0.60192  0.21817  0.63285  1.0000
  Ti  Ti75      1.0  0.60187  0.20657  0.97354  1.0000
  Ti  Ti76      1.0  0.58175  0.41784  0.90853  1.0000
  Ti  Ti77      1.0  0.57088  0.39065  0.25032  1.0000
  Ti  Ti78      1.0  0.62482  0.42699  0.59696  1.0000
  Ti  Ti79      1.0  0.61067  0.64323  0.11259  1.0000
  Ti  Ti80      1.0  0.55627  0.60069  0.40236  1.0000
  Ti  Ti81      1.0  0.68394  0.57762  0.81056  1.0000
  Ti  Ti82      1.0  0.68000  0.79790  0.01962  1.0000
  Ti  Ti83      1.0  0.66871  0.80021  0.34559  1.0000
  Ti  Ti84      1.0  0.69522  0.78762  0.69391  1.0000
  Ti  Ti85      1.0  0.84846  0.19351  0.96340  1.0000
  Ti  Ti86      1.0  0.84744  0.17613  0.29252  1.0000
  Ti  Ti87      1.0  0.82095  0.20025  0.61881  1.0000
  Ti  Ti88      1.0  0.91194  0.35445  0.91561  1.0000
  Ti  Ti89      1.0  0.89111  0.30258  0.41037  1.0000
  Ti  Ti90      1.0  0.01223  0.14061  0.51924  1.0000
  Ti  Ti91      1.0  0.90887  0.61020  0.00282  1.0000
  Ti  Ti92      1.0  0.91848  0.50445  0.45398  1.0000
  Ti  Ti93      1.0  0.88826  0.55126  0.75540  1.0000
  Ti  Ti94      1.0  0.62462  0.97932  0.03270  1.0000
  Ti  Ti95      1.0  0.70868  0.96572  0.39947  1.0000
  Ti  Ti96      1.0  0.65681  0.99313  0.71454  1.0000
  I   I1        1.0  0.21507  0.96410  0.90001  1.0000
  I   I2        1.0  0.17974  0.05205  0.18577  1.0000
  I   I3        1.0  0.25760  0.06361  0.44301  1.0000
  I   I4        1.0  0.08350  0.25611  0.44413  1.0000
  I   I5        1.0  0.14956  0.27400  0.71436  1.0000
  I   I6        1.0  0.16478  0.28910  0.00543  1.0000
  I   I7        1.0  0.05203  0.76537  0.77875  1.0000
  I   I8        1.0  0.87464  0.79893  0.83503  1.0000
  I   I9        1.0  0.99036  0.67183  0.30070  1.0000
  I   I10       1.0  0.90365  0.98328  0.28075  1.0000
  I   I11       1.0  0.18663  0.81730  0.59966  1.0000
  I   I12       1.0  0.96337  0.89322  0.00154  1.0000
  I   I13       1.0  0.38336  0.20671  0.31487  1.0000
  I   I14       1.0  0.39347  0.11938  0.68656  1.0000
  I   I15       1.0  0.37953  0.20962  0.99682  1.0000
  I   I16       1.0  0.30228  0.39287  0.88390  1.0000
  I   I17       1.0  0.16869  0.44200  0.09315  1.0000
  I   I18       1.0  0.41960  0.37947  0.65908  1.0000
  I   I19       1.0  0.47766  0.68228  0.95029  1.0000
  I   I20       1.0  0.19972  0.59751  0.27053  1.0000
  I   I21       1.0  0.23046  0.74017  0.32870  1.0000
  I   I22       1.0  0.45175  0.89729  0.87364  1.0000
  I   I23       1.0  0.41673  0.94460  0.03172  1.0000
  I   I24       1.0  0.44469  0.73913  0.66174  1.0000
  I   I25       1.0  0.61666  0.17775  0.53472  1.0000
  I   I26       1.0  0.63856  0.16571  0.85602  1.0000
  I   I27       1.0  0.63511  0.16608  0.17781  1.0000
  I   I28       1.0  0.55288  0.37947  0.13656  1.0000
  I   I29       1.0  0.65323  0.39323  0.49020  1.0000
  I   I30       1.0  0.61542  0.37784  0.81556  1.0000
  I   I31       1.0  0.54891  0.63049  0.29075  1.0000
  I   I32       1.0  0.69586  0.53241  0.72019  1.0000
  I   I33       1.0  0.63269  0.60546  0.01880  1.0000
  I   I34       1.0  0.66993  0.75884  0.23892  1.0000
  I   I35       1.0  0.67393  0.77108  0.59932  1.0000
  I   I36       1.0  0.67976  0.75836  0.93189  1.0000
  I   I37       1.0  0.82239  0.17980  0.18292  1.0000
  I   I38       1.0  0.80176  0.17798  0.52187  1.0000
  I   I39       1.0  0.81211  0.17604  0.86827  1.0000
  I   I40       1.0  0.88672  0.34770  0.33601  1.0000
  I   I41       1.0  0.00991  0.15000  0.39589  1.0000
  I   I42       1.0  0.86684  0.33264  0.94705  1.0000
  I   I43       1.0  0.88272  0.51046  0.35817  1.0000
  I   I44       1.0  0.85112  0.54664  0.66578  1.0000
  I   I45       1.0  0.86503  0.58325  0.95692  1.0000
  I   I46       1.0  0.74365  0.92639  0.30306  1.0000
  I   I47       1.0  0.69722  0.94833  0.61582  1.0000
  I   I48       1.0  0.63145  0.96717  0.91457  1.0000
  I   I49       1.0  0.31923  0.11058  0.59079  1.0000
  I   I50       1.0  0.17470  0.07833  0.01101  1.0000
  I   I51       1.0  0.25108  0.11205  0.28141  1.0000
  I   I52       1.0  0.21901  0.28753  0.24886  1.0000
  I   I53       1.0  0.11698  0.32539  0.58219  1.0000
  I   I54       1.0  0.18846  0.34460  0.86911  1.0000
  I   I55       1.0  0.00568  0.70946  0.52631  1.0000
  I   I56       1.0  0.92743  0.80111  0.70813  1.0000
  I   I57       1.0  0.94064  0.77913  0.24102  1.0000
  I   I58       1.0  0.96309  0.99239  0.15604  1.0000
  I   I59       1.0  0.91794  0.91115  0.42378  1.0000
  I   I60       1.0  0.11000  0.81736  0.78240  1.0000
  I   I61       1.0  0.45422  0.20673  0.18629  1.0000
  I   I62       1.0  0.42554  0.24577  0.48968  1.0000
  I   I63       1.0  0.44208  0.17607  0.83278  1.0000
  I   I64       1.0  0.34429  0.46053  0.81587  1.0000
  I   I65       1.0  0.18779  0.50562  0.00679  1.0000
  I   I66       1.0  0.16421  0.49109  0.33923  1.0000
  I   I67       1.0  0.32316  0.77650  0.25261  1.0000
  I   I68       1.0  0.44290  0.67093  0.81077  1.0000
  I   I69       1.0  0.24511  0.65931  0.25581  1.0000
  I   I70       1.0  0.37518  0.87605  0.61549  1.0000
  I   I71       1.0  0.49996  0.94556  0.05747  1.0000
  I   I72       1.0  0.48452  0.80441  0.23069  1.0000
  I   I73       1.0  0.59264  0.23949  0.37543  1.0000
  I   I74       1.0  0.59719  0.25888  0.72781  1.0000
  I   I75       1.0  0.60301  0.24537  0.06862  1.0000
  I   I76       1.0  0.56542  0.44884  0.02449  1.0000
  I   I77       1.0  0.55706  0.34084  0.28494  1.0000
  I   I78       1.0  0.61327  0.44809  0.72343  1.0000
  I   I79       1.0  0.58656  0.68659  0.20786  1.0000
  I   I80       1.0  0.56896  0.58927  0.51117  1.0000
  I   I81       1.0  0.68370  0.62630  0.88264  1.0000
  I   I82       1.0  0.70921  0.81145  0.12477  1.0000
  I   I83       1.0  0.69527  0.81414  0.44361  1.0000
  I   I84       1.0  0.73245  0.79504  0.79917  1.0000
  I   I85       1.0  0.87357  0.19168  0.07028  1.0000
  I   I86       1.0  0.87897  0.16826  0.39944  1.0000
  I   I87       1.0  0.84462  0.20277  0.73874  1.0000
  I   I88       1.0  0.96134  0.36325  0.95941  1.0000
  I   I89       1.0  0.92681  0.23247  0.44028  1.0000
  I   I90       1.0  0.04097  0.12537  0.62615  1.0000
  I   I91       1.0  0.87444  0.62311  0.09730  1.0000
  I   I92       1.0  0.95575  0.49456  0.55887  1.0000
  I   I93       1.0  0.93398  0.55164  0.85322  1.0000
  I   I94       1.0  0.57758  0.03579  0.08127  1.0000
  I   I95       1.0  0.69041  0.01196  0.48834  1.0000
  I   I96       1.0  0.64075  0.03146  0.81218  1.0000
  I   I97       1.0  0.33247  0.07283  0.42217  1.0000
  I   I98       1.0  0.29890  0.10721  0.77385  1.0000
  I   I99       1.0  0.25066  0.05617  0.13189  1.0000
  I   I100      1.0  0.23276  0.29531  0.05348  1.0000
  I   I101      1.0  0.19336  0.21962  0.31106  1.0000
  I   I102      1.0  0.18841  0.32760  0.68698  1.0000
  I   I103      1.0  0.01265  0.73387  0.37404  1.0000
  I   I104      1.0  0.00448  0.64462  0.62901  1.0000
  I   I105      1.0  0.91685  0.82252  0.08117  1.0000
  I   I106      1.0  0.09423  0.89425  0.85629  1.0000
  I   I107      1.0  0.99973  0.95151  0.32353  1.0000
  I   I108      1.0  0.12845  0.89068  0.70454  1.0000
  I   I109      1.0  0.46225  0.16487  0.99707  1.0000
  I   I110      1.0  0.45982  0.18776  0.36427  1.0000
  I   I111      1.0  0.47650  0.10676  0.69338  1.0000
  I   I112      1.0  0.42311  0.44695  0.75315  1.0000
  I   I113      1.0  0.30196  0.45303  0.95813  1.0000
  I   I114      1.0  0.16887  0.51378  0.18044  1.0000
  I   I115      1.0  0.31943  0.69663  0.29706  1.0000
  I   I116      1.0  0.21405  0.89508  0.34679  1.0000
  I   I117      1.0  0.42143  0.60343  0.90151  1.0000
  I   I118      1.0  0.46422  0.80387  0.68579  1.0000
  I   I119      1.0  0.27687  0.91294  0.65076  1.0000
  I   I120      1.0  0.44036  0.94241  0.18967  1.0000
  I   I121      1.0  0.63774  0.23477  0.23559  1.0000
  I   I122      1.0  0.64431  0.23139  0.56002  1.0000
  I   I123      1.0  0.63375  0.23700  0.90006  1.0000
  I   I124      1.0  0.63834  0.43197  0.88631  1.0000
  I   I125      1.0  0.58121  0.44156  0.18816  1.0000
  I   I126      1.0  0.67053  0.45442  0.57206  1.0000
  I   I127      1.0  0.67732  0.64010  0.07899  1.0000
  I   I128      1.0  0.58929  0.66945  0.37826  1.0000
  I   I129      1.0  0.74402  0.56597  0.75709  1.0000
  I   I130      1.0  0.74591  0.76222  0.96144  1.0000
  I   I131      1.0  0.73760  0.77429  0.28203  1.0000
  I   I132      1.0  0.74901  0.76743  0.61275  1.0000
  I   I133      1.0  0.90548  0.13988  0.90642  1.0000
  I   I134      1.0  0.91404  0.13832  0.23670  1.0000
  I   I135      1.0  0.88142  0.15122  0.56767  1.0000
  I   I136      1.0  0.12628  0.13711  0.58514  1.0000
  I   I137      1.0  0.01882  0.30548  0.06584  1.0000
  I   I138      1.0  0.02202  0.19753  0.49169  1.0000
  I   I139      1.0  0.94768  0.54289  0.03160  1.0000
  I   I140      1.0  0.92385  0.43744  0.43194  1.0000
  I   I141      1.0  0.93879  0.47935  0.72926  1.0000
  I   I142      1.0  0.66351  0.01030  0.00107  1.0000
  I   I143      1.0  0.75837  0.98705  0.37410  1.0000
  I   I144      1.0  0.70826  0.01093  0.67370  1.0000
  I   I145      1.0  0.31104  0.03084  0.57753  1.0000
  I   I146      1.0  0.16968  0.99962  0.05611  1.0000
  I   I147      1.0  0.27505  0.02619  0.27727  1.0000
  I   I148      1.0  0.23569  0.21956  0.14439  1.0000
  I   I149      1.0  0.15795  0.25081  0.53409  1.0000
  I   I150      1.0  0.20617  0.26664  0.83572  1.0000
  I   I151      1.0  0.05793  0.63382  0.40982  1.0000
  I   I152      1.0  0.88925  0.73791  0.70525  1.0000
  I   I153      1.0  0.99328  0.72547  0.13708  1.0000
  I   I154      1.0  0.92167  0.93636  0.13922  1.0000
  I   I155      1.0  0.10810  0.95152  0.56804  1.0000
  I   I156      1.0  0.18994  0.79842  0.76360  1.0000
  I   I157      1.0  0.41887  0.16720  0.15874  1.0000
  I   I158      1.0  0.39690  0.13767  0.50433  1.0000
  I   I159      1.0  0.39241  0.12830  0.86136  1.0000
  I   I160      1.0  0.38008  0.37174  0.77813  1.0000
  I   I161      1.0  0.25456  0.40831  0.04222  1.0000
  I   I162      1.0  0.43213  0.43047  0.51895  1.0000
  I   I163      1.0  0.26918  0.79675  0.39340  1.0000
  I   I164      1.0  0.32746  0.63216  0.95459  1.0000
  I   I165      1.0  0.22966  0.66096  0.40835  1.0000
  I   I166      1.0  0.38653  0.80720  0.75366  1.0000
  I   I167      1.0  0.50819  0.86634  0.99579  1.0000
  I   I168      1.0  0.51632  0.69615  0.54704  1.0000
  I   I169      1.0  0.66434  0.15193  0.35726  1.0000
  I   I170      1.0  0.65289  0.17359  0.70018  1.0000
  I   I171      1.0  0.67498  0.16831  0.03415  1.0000
  I   I172      1.0  0.61839  0.36452  0.98422  1.0000
  I   I173      1.0  0.73573  0.38596  0.45930  1.0000
  I   I174      1.0  0.67411  0.37541  0.66319  1.0000
  I   I175      1.0  0.63654  0.58804  0.18415  1.0000
  I   I176      1.0  0.65813  0.58838  0.59150  1.0000
  I   I177      1.0  0.72167  0.53356  0.90130  1.0000
  I   I178      1.0  0.72133  0.72847  0.07661  1.0000
  I   I179      1.0  0.69439  0.73952  0.41767  1.0000
  I   I180      1.0  0.72352  0.72005  0.73661  1.0000
  I   I181      1.0  0.83597  0.14903  0.02871  1.0000
  I   I182      1.0  0.85347  0.11301  0.36498  1.0000
  I   I183      1.0  0.83185  0.14388  0.69574  1.0000
  I   I184      1.0  0.91196  0.34659  0.05957  1.0000
  I   I185      1.0  0.94701  0.23979  0.27334  1.0000
  I   I186      1.0  0.08268  0.10797  0.49147  1.0000
  I   I187      1.0  0.97032  0.48041  0.23683  1.0000
  I   I188      1.0  0.87443  0.49922  0.53486  1.0000
  I   I189      1.0  0.86725  0.52032  0.86107  1.0000
  I   I190      1.0  0.77984  0.94099  0.15959  1.0000
  I   I191      1.0  0.75684  0.92874  0.48543  1.0000
  I   I192      1.0  0.71028  0.94248  0.79100  1.0000
  I   I193      1.0  0.35218  0.01397  0.72463  1.0000
  I   I194      1.0  0.25272  0.00267  0.98870  1.0000
  I   I195      1.0  0.34912  0.03462  0.25917  1.0000
  I   I196      1.0  0.26862  0.22969  0.38137  1.0000
  I   I197      1.0  0.20296  0.31434  0.53404  1.0000
  I   I198      1.0  0.28056  0.27443  0.90332  1.0000
  I   I199      1.0  0.08607  0.64653  0.55181  1.0000
  I   I200      1.0  0.97082  0.77194  0.83627  1.0000
  I   I201      1.0  0.01940  0.78501  0.24995  1.0000
  I   I202      1.0  0.00830  0.90675  0.13802  1.0000
  I   I203      1.0  0.19998  0.89982  0.60420  1.0000
  I   I204      1.0  0.18903  0.83511  0.92837  1.0000
  I   I205      1.0  0.51035  0.11283  0.24621  1.0000
  I   I206      1.0  0.47975  0.14053  0.52915  1.0000
  I   I207      1.0  0.48132  0.08423  0.91507  1.0000
  I   I208      1.0  0.41624  0.40529  0.90451  1.0000
  I   I209      1.0  0.25293  0.48756  0.13831  1.0000
  I   I210      1.0  0.44238  0.48463  0.61232  1.0000
  I   I211      1.0  0.28584  0.87840  0.24901  1.0000
  I   I212      1.0  0.42657  0.64059  0.01709  1.0000
  I   I213      1.0  0.31009  0.60620  0.32107  1.0000
  I   I214      1.0  0.34772  0.90963  0.75470  1.0000
  I   I215      1.0  0.51834  0.87412  0.17248  1.0000
  I   I216      1.0  0.52246  0.77970  0.57536  1.0000
  I   I217      1.0  0.68020  0.22637  0.39423  1.0000
  I   I218      1.0  0.67365  0.25426  0.76104  1.0000
  I   I219      1.0  0.69091  0.24378  0.09468  1.0000
  I   I220      1.0  0.65715  0.40767  0.09293  1.0000
  I   I221      1.0  0.76341  0.36860  0.62476  1.0000
  I   I222      1.0  0.71202  0.41884  0.78968  1.0000
  I   I223      1.0  0.67488  0.62734  0.29465  1.0000
  I   I224      1.0  0.71900  0.63142  0.61482  1.0000
  I   I225      1.0  0.75540  0.58758  0.96303  1.0000
  I   I226      1.0  0.79359  0.72887  0.16241  1.0000
  I   I227      1.0  0.78612  0.75508  0.46807  1.0000
  I   I228      1.0  0.80407  0.71764  0.82792  1.0000
  I   I229      1.0  0.95242  0.08868  0.11236  1.0000
  I   I230      1.0  0.93055  0.08147  0.46763  1.0000
  I   I231      1.0  0.92777  0.12015  0.74498  1.0000
  I   I232      1.0  0.96418  0.27832  0.92196  1.0000
  I   I233      1.0  0.96365  0.28287  0.42501  1.0000
  I   I234      1.0  0.14547  0.03529  0.59470  1.0000
  I   I235      1.0  0.00695  0.40411  0.32541  1.0000
  I   I236      1.0  0.94674  0.41188  0.60496  1.0000
  I   I237      1.0  0.96449  0.46165  0.90435  1.0000
  I   I238      1.0  0.80897  0.99427  0.24807  1.0000
  I   I239      1.0  0.76704  0.00970  0.55536  1.0000
  I   I240      1.0  0.73291  0.99313  0.89193  1.0000
  I   I241      1.0  0.26177  0.03907  0.72991  1.0000
  I   I242      1.0  0.25205  0.96372  0.14068  1.0000
  I   I243      1.0  0.34732  0.98959  0.38546  1.0000
  I   I244      1.0  0.29597  0.16494  0.26119  1.0000
  I   I245      1.0  0.24397  0.23787  0.64785  1.0000
  I   I246      1.0  0.25040  0.21964  0.96389  1.0000
  I   I247      1.0  0.05612  0.57287  0.53530  1.0000
  I   I248      1.0  0.94931  0.69406  0.83126  1.0000
  I   I249      1.0  0.07069  0.68606  0.23868  1.0000
  I   I250      1.0  0.97295  0.88827  0.28326  1.0000
  I   I251      1.0  0.14952  0.88478  0.46986  1.0000
  I   I252      1.0  0.13840  0.79183  0.92215  1.0000
  I   I253      1.0  0.43700  0.11035  0.32050  1.0000
  I   I254      1.0  0.46417  0.05876  0.57005  1.0000
  I   I255      1.0  0.40759  0.11671  0.02440  1.0000
  I   I256      1.0  0.37114  0.35322  0.95589  1.0000
  I   I257      1.0  0.22740  0.43068  0.21252  1.0000
  I   I258      1.0  0.50486  0.37849  0.63793  1.0000
  I   I259      1.0  0.31361  0.84372  0.39178  1.0000
  I   I260      1.0  0.52018  0.59229  0.88690  1.0000
  I   I261      1.0  0.30688  0.67325  0.44341  1.0000
  I   I262      1.0  0.29089  0.86810  0.79635  1.0000
  I   I263      1.0  0.43836  0.87142  0.09831  1.0000
  I   I264      1.0  0.54366  0.71413  0.71197  1.0000
  I   I265      1.0  0.70420  0.14701  0.49357  1.0000
  I   I266      1.0  0.72079  0.16728  0.81702  1.0000
  I   I267      1.0  0.71868  0.15411  0.17463  1.0000
  I   I268      1.0  0.63564  0.33565  0.17228  1.0000
  I   I269      1.0  0.72665  0.31664  0.54919  1.0000
  I   I270      1.0  0.70829  0.33894  0.85289  1.0000
  I   I271      1.0  0.62807  0.57636  0.36652  1.0000
  I   I272      1.0  0.75702  0.54530  0.58626  1.0000
  I   I273      1.0  0.72737  0.53600  0.06382  1.0000
  I   I274      1.0  0.75331  0.68552  0.23738  1.0000
  I   I275      1.0  0.76031  0.68976  0.53461  1.0000
  I   I276      1.0  0.75026  0.67647  0.87466  1.0000
  I   I277      1.0  0.87395  0.08782  0.18661  1.0000
  I   I278      1.0  0.84896  0.08428  0.52936  1.0000
  I   I279      1.0  0.87416  0.08540  0.82275  1.0000
  I   I280      1.0  0.96793  0.25422  0.08364  1.0000
  I   I281      1.0  0.04016  0.20579  0.31964  1.0000
  I   I282      1.0  0.11042  0.09019  0.72212  1.0000
  I   I283      1.0  0.92181  0.42475  0.26635  1.0000
  I   I284      1.0  0.86848  0.45411  0.68061  1.0000
  I   I285      1.0  0.89019  0.49403  0.01040  1.0000
  I   I286      1.0  0.84466  0.89896  0.28187  1.0000
  I   I287      1.0  0.79266  0.92459  0.63099  1.0000
  I   I288      1.0  0.72317  0.91918  0.95043  1.0000
  I   I289      1.0  0.24259  0.10584  0.62122  1.0000
  I   I290      1.0  0.11968  0.04249  0.93772  1.0000
  I   I291      1.0  0.18450  0.07546  0.33712  1.0000
  I   I292      1.0  0.13899  0.27427  0.15533  1.0000
  I   I293      1.0  0.03545  0.34125  0.50816  1.0000
  I   I294      1.0  0.11443  0.30391  0.85137  1.0000
  I   I295      1.0  0.97968  0.64055  0.46603  1.0000
  I   I296      1.0  0.00357  0.81188  0.63538  1.0000
  I   I297      1.0  0.92236  0.73111  0.04845  1.0000
  I   I298      1.0  0.91128  0.99493  0.99854  1.0000
  I   I299      1.0  0.92123  0.99431  0.44489  1.0000
  I   I300      1.0  0.13524  0.77143  0.63264  1.0000
  I   I301      1.0  0.36879  0.27379  0.11757  1.0000
  I   I302      1.0  0.33681  0.27002  0.42808  1.0000
  I   I303      1.0  0.35348  0.20212  0.78567  1.0000
  I   I304      1.0  0.31632  0.43027  0.67932  1.0000
  I   I305      1.0  0.21273  0.41794  0.90159  1.0000
  I   I306      1.0  0.16156  0.40871  0.27472  1.0000
  I   I307      1.0  0.22520  0.82759  0.25499  1.0000
  I   I308      1.0  0.34578  0.69282  0.86330  1.0000
  I   I309      1.0  0.29219  0.55287  0.19420  1.0000
  I   I310      1.0  0.34379  0.81729  0.61564  1.0000
  I   I311      1.0  0.44147  0.99291  0.91669  1.0000
  I   I312      1.0  0.39003  0.88849  0.24422  1.0000
  I   I313      1.0  0.56759  0.17671  0.30755  1.0000
  I   I314      1.0  0.56621  0.19561  0.68550  1.0000
  I   I315      1.0  0.58116  0.16747  0.01018  1.0000
  I   I316      1.0  0.52730  0.40989  0.89706  1.0000
  I   I317      1.0  0.51257  0.43385  0.29483  1.0000
  I   I318      1.0  0.59287  0.39238  0.59104  1.0000
  I   I319      1.0  0.55452  0.64197  0.10990  1.0000
  I   I320      1.0  0.55735  0.54506  0.37272  1.0000
  I   I321      1.0  0.62787  0.57335  0.83867  1.0000
  I   I322      1.0  0.62458  0.81213  0.06460  1.0000
  I   I323      1.0  0.60857  0.81485  0.37602  1.0000
  I   I324      1.0  0.64781  0.80236  0.77397  1.0000
  I   I325      1.0  0.79007  0.24351  0.98814  1.0000
  I   I326      1.0  0.79400  0.22263  0.33324  1.0000
  I   I327      1.0  0.75834  0.22872  0.65411  1.0000
  I   I328      1.0  0.86459  0.41220  0.91096  1.0000
  I   I329      1.0  0.83049  0.31262  0.38467  1.0000
  I   I330      1.0  0.01561  0.08260  0.49946  1.0000
  I   I331      1.0  0.89065  0.65598  0.91917  1.0000
  I   I332      1.0  0.89030  0.57099  0.45621  1.0000
  I   I333      1.0  0.85016  0.61019  0.78390  1.0000
  I   I334      1.0  0.66577  0.95468  0.11783  1.0000
  I   I335      1.0  0.66949  0.93811  0.42232  1.0000
  I   I336      1.0  0.61386  0.97304  0.74524  1.0000
  I   I337      1.0  0.25181  0.15628  0.49057  1.0000
  I   I338      1.0  0.17087  0.06894  0.85493  1.0000
  I   I339      1.0  0.17614  0.14202  0.21390  1.0000
  I   I340      1.0  0.15217  0.35243  0.13175  1.0000
  I   I341      1.0  0.11264  0.31520  0.39925  1.0000
  I   I342      1.0  0.09505  0.37373  0.75785  1.0000
  I   I343      1.0  0.93108  0.73766  0.41188  1.0000
  I   I344      1.0  0.96953  0.85140  0.78946  1.0000
  I   I345      1.0  0.86088  0.79368  0.16278  1.0000
  I   I346      1.0  0.01504  0.94769  0.01014  1.0000
  I   I347      1.0  0.00110  0.90393  0.46575  1.0000
  I   I348      1.0  0.08360  0.86167  0.61480  1.0000
  I   I349      1.0  0.44853  0.24864  0.02862  1.0000
  I   I350      1.0  0.40041  0.29324  0.34390  1.0000
  I   I351      1.0  0.40931  0.19090  0.65279  1.0000
  I   I352      1.0  0.35474  0.48529  0.63802  1.0000
  I   I353      1.0  0.23411  0.49409  0.85153  1.0000
  I   I354      1.0  0.09656  0.49822  0.23060  1.0000
  I   I355      1.0  0.25791  0.75122  0.18494  1.0000
  I   I356      1.0  0.33422  0.71257  0.02742  1.0000
  I   I357      1.0  0.28570  0.54726  0.35219  1.0000
  I   I358      1.0  0.42650  0.80405  0.52164  1.0000
  I   I359      1.0  0.52320  0.92784  0.87285  1.0000
  I   I360      1.0  0.46432  0.87412  0.33305  1.0000
  I   I361      1.0  0.54011  0.26085  0.22358  1.0000
  I   I362      1.0  0.54918  0.26804  0.57635  1.0000
  I   I363      1.0  0.54923  0.25114  0.92443  1.0000
  I   I364      1.0  0.54354  0.47769  0.86127  1.0000
  I   I365      1.0  0.60264  0.37622  0.35193  1.0000
  I   I366      1.0  0.57745  0.48497  0.59439  1.0000
  I   I367      1.0  0.58289  0.70304  0.04738  1.0000
  I   I368      1.0  0.49662  0.64028  0.42731  1.0000
  I   I369      1.0  0.65543  0.63669  0.72885  1.0000
  I   I370      1.0  0.67645  0.85318  0.96112  1.0000
  I   I371      1.0  0.65594  0.85368  0.28997  1.0000
  I   I372      1.0  0.67415  0.84831  0.66620  1.0000
  I   I373      1.0  0.85823  0.24185  0.91371  1.0000
  I   I374      1.0  0.86283  0.22349  0.25722  1.0000
  I   I375      1.0  0.82492  0.24989  0.56925  1.0000
  I   I376      1.0  0.91345  0.34248  0.80310  1.0000
  I   I377      1.0  0.88018  0.34116  0.50086  1.0000
  I   I378      1.0  0.95465  0.17029  0.57156  1.0000
  I   I379      1.0  0.96098  0.61633  0.02458  1.0000
  I   I380      1.0  0.97640  0.49039  0.40435  1.0000
  I   I381      1.0  0.92729  0.55979  0.68573  1.0000
  I   I382      1.0  0.57759  0.95951  0.03871  1.0000
  I   I383      1.0  0.66665  0.00386  0.32124  1.0000
  I   I384      1.0  0.61688  0.03284  0.63842  1.0000
