data_image0
_chemical_formula_structural       Ti96I384
_chemical_formula_sum              "Ti96 I384"
_cell_length_a       43.2372
_cell_length_b       43.0112
_cell_length_c       22.4631
_cell_angle_alpha    88.7757
_cell_angle_beta     88.7757
_cell_angle_gamma    62.1586

_space_group_name_H-M_alt    "P 1"
_space_group_IT_number       1

loop_
  _space_group_symop_operation_xyz
  'x, y, z'

loop_
  _atom_site_type_symbol
  _atom_site_label
  _atom_site_symmetry_multiplicity
  _atom_site_fract_x
  _atom_site_fract_y
  _atom_site_fract_z
  _atom_site_occupancy
  Ti  Ti1       1.0  0.32496  0.05482  0.97186  1.0000
  Ti  Ti2       1.0  0.20619  0.08272  0.36316  1.0000
  Ti  Ti3       1.0  0.28324  0.08401  0.62099  1.0000
  Ti  Ti4       1.0  0.18005  0.34813  0.17648  1.0000
  Ti  Ti5       1.0  0.16830  0.36122  0.51127  1.0000
  Ti  Ti6       1.0  0.17041  0.37757  0.81773  1.0000
  Ti  Ti7       1.0  0.08396  0.65172  0.48699  1.0000
  Ti  Ti8       1.0  0.04912  0.65679  0.83017  1.0000
  Ti  Ti9       1.0  0.05934  0.64618  0.16224  1.0000
  Ti  Ti10      1.0  0.06574  0.85466  0.25369  1.0000
  Ti  Ti11      1.0  0.08156  0.87917  0.58519  1.0000
  Ti  Ti12      1.0  0.07700  0.87503  0.92489  1.0000
  Ti  Ti13      1.0  0.57355  0.05256  0.25697  1.0000
  Ti  Ti14      1.0  0.56842  0.03712  0.58884  1.0000
  Ti  Ti15      1.0  0.56304  0.02542  0.94037  1.0000
  Ti  Ti16      1.0  0.33783  0.37651  0.47178  1.0000
  Ti  Ti17      1.0  0.33752  0.42504  0.76364  1.0000
  Ti  Ti18      1.0  0.39453  0.37084  0.12764  1.0000
  Ti  Ti19      1.0  0.41164  0.65819  0.48952  1.0000
  Ti  Ti20      1.0  0.34853  0.64468  0.90749  1.0000
  Ti  Ti21      1.0  0.33003  0.64736  0.30759  1.0000
  Ti  Ti22      1.0  0.24363  0.91201  0.80042  1.0000
  Ti  Ti23      1.0  0.41093  0.86628  0.27035  1.0000
  Ti  Ti24      1.0  0.45574  0.78929  0.77564  1.0000
  Ti  Ti25      1.0  0.59543  0.22185  0.45193  1.0000
  Ti  Ti26      1.0  0.60019  0.20843  0.76202  1.0000
  Ti  Ti27      1.0  0.63986  0.20347  0.09932  1.0000
  Ti  Ti28      1.0  0.61865  0.40864  0.14443  1.0000
  Ti  Ti29      1.0  0.60910  0.40451  0.44967  1.0000
  Ti  Ti30      1.0  0.62339  0.38848  0.79395  1.0000
  Ti  Ti31      1.0  0.69923  0.54694  0.15288  1.0000
  Ti  Ti32      1.0  0.70798  0.52531  0.46222  1.0000
  Ti  Ti33      1.0  0.70892  0.52472  0.81508  1.0000
  Ti  Ti34      1.0  0.69383  0.75951  0.26800  1.0000
  Ti  Ti35      1.0  0.70833  0.77364  0.62486  1.0000
  Ti  Ti36      1.0  0.71255  0.77037  0.96330  1.0000
  Ti  Ti37      1.0  0.82197  0.10109  0.28364  1.0000
  Ti  Ti38      1.0  0.83382  0.10436  0.60243  1.0000
  Ti  Ti39      1.0  0.85036  0.09478  0.94138  1.0000
  Ti  Ti40      1.0  0.95946  0.26182  0.03238  1.0000
  Ti  Ti41      1.0  0.95887  0.27828  0.37383  1.0000
  Ti  Ti42      1.0  0.97010  0.27447  0.71218  1.0000
  Ti  Ti43      1.0  0.92009  0.53495  0.24575  1.0000
  Ti  Ti44      1.0  0.94623  0.52306  0.58012  1.0000
  Ti  Ti45      1.0  0.93389  0.53708  0.92242  1.0000
  Ti  Ti46      1.0  0.81848  0.90063  0.25442  1.0000
  Ti  Ti47      1.0  0.81140  0.90354  0.56803  1.0000
  Ti  Ti48      1.0  0.81967  0.90324  0.91599  1.0000
  Ti  Ti49      1.0  0.27490  0.09811  0.82653  1.0000
  Ti  Ti50      1.0  0.14730  0.11289  0.22028  1.0000
  Ti  Ti51      1.0  0.19439  0.08846  0.54398  1.0000
  Ti  Ti52      1.0  0.13878  0.41444  0.00526  1.0000
  Ti  Ti53      1.0  0.12585  0.42487  0.34646  1.0000
  Ti  Ti54      1.0  0.13421  0.43463  0.65798  1.0000
  Ti  Ti55      1.0  0.01049  0.70601  0.32854  1.0000
  Ti  Ti56      1.0  0.99598  0.68893  0.67230  1.0000
  Ti  Ti57      1.0  0.98832  0.70638  0.00220  1.0000
  Ti  Ti58      1.0  0.00712  0.91999  0.08697  1.0000
  Ti  Ti59      1.0  0.01450  0.88266  0.43890  1.0000
  Ti  Ti60      1.0  0.01574  0.91130  0.77050  1.0000
  Ti  Ti61      1.0  0.51443  0.09730  0.08663  1.0000
  Ti  Ti62      1.0  0.51205  0.09006  0.42353  1.0000
  Ti  Ti63      1.0  0.51150  0.08170  0.77164  1.0000
  Ti  Ti64      1.0  0.33357  0.39683  0.26981  1.0000
  Ti  Ti65      1.0  0.28871  0.48048  0.58692  1.0000
  Ti  Ti66      1.0  0.27939  0.48360  0.92217  1.0000
  Ti  Ti67      1.0  0.31615  0.68569  0.48495  1.0000
  Ti  Ti68      1.0  0.29441  0.62124  0.76781  1.0000
  Ti  Ti69      1.0  0.21915  0.69224  0.21612  1.0000
  Ti  Ti70      1.0  0.34775  0.83710  0.77408  1.0000
  Ti  Ti71      1.0  0.29793  0.88956  0.24498  1.0000
  Ti  Ti72      1.0  0.43987  0.94523  0.24719  1.0000
  Ti  Ti73      1.0  0.56709  0.23300  0.24786  1.0000
  Ti  Ti74      1.0  0.52382  0.26213  0.60626  1.0000
  Ti  Ti75      1.0  0.56412  0.25141  0.93080  1.0000
  Ti  Ti76      1.0  0.56771  0.43681  0.97439  1.0000
  Ti  Ti77      1.0  0.55034  0.47059  0.29635  1.0000
  Ti  Ti78      1.0  0.55487  0.44616  0.63636  1.0000
  Ti  Ti79      1.0  0.64541  0.57224  0.96379  1.0000
  Ti  Ti80      1.0  0.62739  0.61493  0.27748  1.0000
  Ti  Ti81      1.0  0.65993  0.54847  0.62588  1.0000
  Ti  Ti82      1.0  0.64515  0.82320  0.12020  1.0000
  Ti  Ti83      1.0  0.65801  0.81790  0.44560  1.0000
  Ti  Ti84      1.0  0.65688  0.82960  0.79969  1.0000
  Ti  Ti85      1.0  0.82511  0.16031  0.11119  1.0000
  Ti  Ti86      1.0  0.82013  0.16826  0.43972  1.0000
  Ti  Ti87      1.0  0.84158  0.15448  0.76171  1.0000
  Ti  Ti88      1.0  0.89855  0.33907  0.91053  1.0000
  Ti  Ti89      1.0  0.91492  0.33038  0.20339  1.0000
  Ti  Ti90      1.0  0.91269  0.33855  0.55637  1.0000
  Ti  Ti91      1.0  0.87132  0.59610  0.09640  1.0000
  Ti  Ti92      1.0  0.88346  0.57793  0.42588  1.0000
  Ti  Ti93      1.0  0.88075  0.59740  0.74540  1.0000
  Ti  Ti94      1.0  0.76109  0.93588  0.08262  1.0000
  Ti  Ti95      1.0  0.74108  0.94288  0.41106  1.0000
  Ti  Ti96      1.0  0.75603  0.94061  0.74967  1.0000
  I   I1        1.0  0.16532  0.07387  0.12662  1.0000
  I   I2        1.0  0.19206  0.04305  0.46290  1.0000
  I   I3        1.0  0.27853  0.05429  0.73948  1.0000
  I   I4        1.0  0.11970  0.40631  0.22936  1.0000
  I   I5        1.0  0.09950  0.42328  0.56330  1.0000
  I   I6        1.0  0.11181  0.42552  0.88187  1.0000
  I   I7        1.0  0.98608  0.66060  0.58180  1.0000
  I   I8        1.0  0.98640  0.67270  0.89567  1.0000
  I   I9        1.0  0.98588  0.67734  0.23829  1.0000
  I   I10       1.0  0.99996  0.86184  0.32746  1.0000
  I   I11       1.0  0.02567  0.87458  0.65167  1.0000
  I   I12       1.0  0.00895  0.88759  0.98536  1.0000
  I   I13       1.0  0.51256  0.05730  0.32106  1.0000
  I   I14       1.0  0.50814  0.04870  0.66378  1.0000
  I   I15       1.0  0.49284  0.07586  0.98439  1.0000
  I   I16       1.0  0.27614  0.44309  0.49371  1.0000
  I   I17       1.0  0.26568  0.46585  0.80896  1.0000
  I   I18       1.0  0.32799  0.37368  0.15920  1.0000
  I   I19       1.0  0.30909  0.60125  0.65893  1.0000
  I   I20       1.0  0.20625  0.65608  0.14107  1.0000
  I   I21       1.0  0.29635  0.64538  0.41223  1.0000
  I   I22       1.0  0.24792  0.94273  0.30068  1.0000
  I   I23       1.0  0.34729  0.90293  0.18087  1.0000
  I   I24       1.0  0.39074  0.80661  0.68117  1.0000
  I   I25       1.0  0.52612  0.23108  0.48877  1.0000
  I   I26       1.0  0.54467  0.21682  0.83563  1.0000
  I   I27       1.0  0.58081  0.19354  0.15216  1.0000
  I   I28       1.0  0.55121  0.43447  0.19350  1.0000
  I   I29       1.0  0.54340  0.42903  0.52022  1.0000
  I   I30       1.0  0.54800  0.41481  0.87426  1.0000
  I   I31       1.0  0.61836  0.57031  0.20555  1.0000
  I   I32       1.0  0.65543  0.50843  0.53280  1.0000
  I   I33       1.0  0.63176  0.54473  0.87004  1.0000
  I   I34       1.0  0.63729  0.79047  0.35198  1.0000
  I   I35       1.0  0.64036  0.80575  0.68984  1.0000
  I   I36       1.0  0.63960  0.79617  0.01702  1.0000
  I   I37       1.0  0.78083  0.17580  0.33708  1.0000
  I   I38       1.0  0.79654  0.16307  0.67126  1.0000
  I   I39       1.0  0.78348  0.15720  0.01952  1.0000
  I   I40       1.0  0.89578  0.30274  0.09727  1.0000
  I   I41       1.0  0.89315  0.32050  0.45136  1.0000
  I   I42       1.0  0.86805  0.32107  0.82729  1.0000
  I   I43       1.0  0.86465  0.55328  0.32425  1.0000
  I   I44       1.0  0.86959  0.56830  0.65186  1.0000
  I   I45       1.0  0.86700  0.57017  0.96595  1.0000
  I   I46       1.0  0.75811  0.90103  0.29840  1.0000
  I   I47       1.0  0.74726  0.90851  0.63654  1.0000
  I   I48       1.0  0.76748  0.90194  0.97877  1.0000
  I   I49       1.0  0.28723  0.13555  0.91529  1.0000
  I   I50       1.0  0.13750  0.14920  0.33621  1.0000
  I   I51       1.0  0.21001  0.13195  0.61687  1.0000
  I   I52       1.0  0.18142  0.40723  0.09458  1.0000
  I   I53       1.0  0.16480  0.42519  0.43950  1.0000
  I   I54       1.0  0.18553  0.42188  0.74051  1.0000
  I   I55       1.0  0.04932  0.72066  0.42045  1.0000
  I   I56       1.0  0.02387  0.72025  0.75505  1.0000
  I   I57       1.0  0.01081  0.71765  0.10570  1.0000
  I   I58       1.0  0.02907  0.92596  0.20891  1.0000
  I   I59       1.0  0.02546  0.93213  0.51535  1.0000
  I   I60       1.0  0.02566  0.94395  0.85901  1.0000
  I   I61       1.0  0.52621  0.12540  0.20308  1.0000
  I   I62       1.0  0.53321  0.10494  0.54528  1.0000
  I   I63       1.0  0.54817  0.08587  0.86542  1.0000
  I   I64       1.0  0.36808  0.40887  0.36477  1.0000
  I   I65       1.0  0.31813  0.48629  0.68330  1.0000
  I   I66       1.0  0.29428  0.51556  0.00224  1.0000
  I   I67       1.0  0.34600  0.71648  0.55506  1.0000
  I   I68       1.0  0.36356  0.59901  0.78828  1.0000
  I   I69       1.0  0.27043  0.71365  0.24766  1.0000
  I   I70       1.0  0.31209  0.88288  0.86486  1.0000
  I   I71       1.0  0.42250  0.80145  0.23006  1.0000
  I   I72       1.0  0.48593  0.94780  0.31426  1.0000
  I   I73       1.0  0.56228  0.27503  0.37047  1.0000
  I   I74       1.0  0.54812  0.27722  0.70157  1.0000
  I   I75       1.0  0.58993  0.26533  0.03093  1.0000
  I   I76       1.0  0.58026  0.47600  0.08082  1.0000
  I   I77       1.0  0.57367  0.48059  0.40220  1.0000
  I   I78       1.0  0.58194  0.45639  0.74407  1.0000
  I   I79       1.0  0.67069  0.59819  0.06791  1.0000
  I   I80       1.0  0.64425  0.65022  0.36570  1.0000
  I   I81       1.0  0.66645  0.58837  0.71739  1.0000
  I   I82       1.0  0.66349  0.83744  0.23622  1.0000
  I   I83       1.0  0.67980  0.84273  0.54974  1.0000
  I   I84       1.0  0.67394  0.84442  0.90768  1.0000
  I   I85       1.0  0.86520  0.12421  0.20835  1.0000
  I   I86       1.0  0.86199  0.14156  0.53554  1.0000
  I   I87       1.0  0.87823  0.14165  0.86692  1.0000
  I   I88       1.0  0.95211  0.32937  0.98270  1.0000
  I   I89       1.0  0.93922  0.34660  0.30654  1.0000
  I   I90       1.0  0.93518  0.34275  0.68011  1.0000
  I   I91       1.0  0.89532  0.60287  0.20660  1.0000
  I   I92       1.0  0.91439  0.59143  0.52213  1.0000
  I   I93       1.0  0.90809  0.60094  0.86162  1.0000
  I   I94       1.0  0.76822  0.96187  0.18812  1.0000
  I   I95       1.0  0.75897  0.96818  0.50649  1.0000
  I   I96       1.0  0.78003  0.96050  0.83901  1.0000
  I   I97       1.0  0.28283  0.13293  0.72554  1.0000
  I   I98       1.0  0.29009  0.08672  0.06448  1.0000
  I   I99       1.0  0.21272  0.12283  0.44544  1.0000
  I   I100      1.0  0.19851  0.37912  0.93587  1.0000
  I   I101      1.0  0.20324  0.36612  0.28228  1.0000
  I   I102      1.0  0.20188  0.37560  0.60242  1.0000
  I   I103      1.0  0.07102  0.68195  0.24462  1.0000
  I   I104      1.0  0.06706  0.67716  0.59219  1.0000
  I   I105      1.0  0.05519  0.68799  0.93214  1.0000
  I   I106      1.0  0.06412  0.92090  0.02434  1.0000
  I   I107      1.0  0.05166  0.89834  0.36091  1.0000
  I   I108      1.0  0.07413  0.90764  0.70850  1.0000
  I   I109      1.0  0.58164  0.06207  0.02649  1.0000
  I   I110      1.0  0.57630  0.08589  0.36383  1.0000
  I   I111      1.0  0.58159  0.06151  0.70267  1.0000
  I   I112      1.0  0.40752  0.33934  0.24748  1.0000
  I   I113      1.0  0.35214  0.42395  0.54634  1.0000
  I   I114      1.0  0.34797  0.45961  0.86907  1.0000
  I   I115      1.0  0.35575  0.68426  0.38815  1.0000
  I   I116      1.0  0.43898  0.65125  0.59848  1.0000
  I   I117      1.0  0.30221  0.70673  0.94226  1.0000
  I   I118      1.0  0.40190  0.77964  0.84748  1.0000
  I   I119      1.0  0.23702  0.97415  0.82286  1.0000
  I   I120      1.0  0.45798  0.88151  0.18712  1.0000
  I   I121      1.0  0.63595  0.22568  0.20834  1.0000
  I   I122      1.0  0.59269  0.25150  0.56330  1.0000
  I   I123      1.0  0.61981  0.24479  0.85832  1.0000
  I   I124      1.0  0.63640  0.40574  0.90383  1.0000
  I   I125      1.0  0.62021  0.43961  0.24455  1.0000
  I   I126      1.0  0.61581  0.43376  0.56272  1.0000
  I   I127      1.0  0.71130  0.56470  0.91143  1.0000
  I   I128      1.0  0.70576  0.58514  0.23449  1.0000
  I   I129      1.0  0.73613  0.52022  0.56847  1.0000
  I   I130      1.0  0.72065  0.79892  0.06905  1.0000
  I   I131      1.0  0.72022  0.78247  0.36747  1.0000
  I   I132      1.0  0.72977  0.79845  0.74124  1.0000
  I   I133      1.0  0.88056  0.10226  0.05238  1.0000
  I   I134      1.0  0.87042  0.09901  0.38126  1.0000
  I   I135      1.0  0.88498  0.08857  0.69612  1.0000
  I   I136      1.0  0.98643  0.29069  0.80854  1.0000
  I   I137      1.0  0.97939  0.28839  0.13562  1.0000
  I   I138      1.0  0.97624  0.30505  0.46970  1.0000
  I   I139      1.0  0.94060  0.57090  0.03972  1.0000
  I   I140      1.0  0.94792  0.55451  0.34613  1.0000
  I   I141      1.0  0.94676  0.56547  0.67967  1.0000
  I   I142      1.0  0.82060  0.94333  0.02567  1.0000
  I   I143      1.0  0.80944  0.94101  0.35446  1.0000
  I   I144      1.0  0.80839  0.93823  0.67305  1.0000
  I   I145      1.0  0.34467  0.04827  0.85435  1.0000
  I   I146      1.0  0.16695  0.05647  0.30271  1.0000
  I   I147      1.0  0.27476  0.04428  0.53771  1.0000
  I   I148      1.0  0.14820  0.35058  0.06838  1.0000
  I   I149      1.0  0.13424  0.36086  0.40574  1.0000
  I   I150      1.0  0.14191  0.36628  0.71442  1.0000
  I   I151      1.0  0.05765  0.63523  0.38548  1.0000
  I   I152      1.0  0.03465  0.62623  0.73598  1.0000
  I   I153      1.0  0.02519  0.63278  0.06936  1.0000
  I   I154      1.0  0.04104  0.84499  0.14855  1.0000
  I   I155      1.0  0.07699  0.83395  0.50091  1.0000
  I   I156      1.0  0.07363  0.84624  0.82454  1.0000
  I   I157      1.0  0.54678  0.03693  0.15245  1.0000
  I   I158      1.0  0.55928  0.02471  0.46974  1.0000
  I   I159      1.0  0.53606  0.01341  0.84071  1.0000
  I   I160      1.0  0.31412  0.36220  0.36874  1.0000
  I   I161      1.0  0.30242  0.41072  0.67521  1.0000
  I   I162      1.0  0.37113  0.40749  0.03534  1.0000
  I   I163      1.0  0.37123  0.62855  0.54120  1.0000
  I   I164      1.0  0.29667  0.62072  0.89795  1.0000
  I   I165      1.0  0.28890  0.62480  0.23795  1.0000
  I   I166      1.0  0.30049  0.81394  0.76601  1.0000
  I   I167      1.0  0.35355  0.86659  0.32925  1.0000
  I   I168      1.0  0.48141  0.81754  0.69769  1.0000
  I   I169      1.0  0.61148  0.18862  0.33539  1.0000
  I   I170      1.0  0.57357  0.19206  0.66358  1.0000
  I   I171      1.0  0.61769  0.18230  0.98370  1.0000
  I   I172      1.0  0.59427  0.38222  0.04474  1.0000
  I   I173      1.0  0.57164  0.39973  0.35251  1.0000
  I   I174      1.0  0.59868  0.37662  0.68250  1.0000
  I   I175      1.0  0.68298  0.51533  0.04212  1.0000
  I   I176      1.0  0.66885  0.55060  0.36209  1.0000
  I   I177      1.0  0.69231  0.49901  0.71235  1.0000
  I   I178      1.0  0.66383  0.75206  0.17258  1.0000
  I   I179      1.0  0.69006  0.75859  0.51947  1.0000
  I   I180      1.0  0.69140  0.75869  0.85254  1.0000
  I   I181      1.0  0.79225  0.11573  0.16376  1.0000
  I   I182      1.0  0.79482  0.12131  0.49312  1.0000
  I   I183      1.0  0.81280  0.11631  0.84512  1.0000
  I   I184      1.0  0.92737  0.26153  0.93411  1.0000
  I   I185      1.0  0.92603  0.26951  0.27359  1.0000
  I   I186      1.0  0.94465  0.26438  0.60110  1.0000
  I   I187      1.0  0.88039  0.53209  0.14150  1.0000
  I   I188      1.0  0.91690  0.50699  0.49145  1.0000
  I   I189      1.0  0.89820  0.53244  0.81183  1.0000
  I   I190      1.0  0.81166  0.86770  0.14250  1.0000
  I   I191      1.0  0.78396  0.87823  0.47203  1.0000
  I   I192      1.0  0.81734  0.87440  0.79472  1.0000
  I   I193      1.0  0.37564  0.07572  0.99008  1.0000
  I   I194      1.0  0.21790  0.11204  0.26034  1.0000
  I   I195      1.0  0.28214  0.13272  0.55490  1.0000
  I   I196      1.0  0.24329  0.29590  0.14252  1.0000
  I   I197      1.0  0.22619  0.31357  0.46648  1.0000
  I   I198      1.0  0.23737  0.33496  0.80562  1.0000
  I   I199      1.0  0.14771  0.64030  0.46724  1.0000
  I   I200      1.0  0.10581  0.65744  0.77548  1.0000
  I   I201      1.0  0.11487  0.63309  0.10297  1.0000
  I   I202      1.0  0.12407  0.85138  0.23055  1.0000
  I   I203      1.0  0.12834  0.89046  0.53552  1.0000
  I   I204      1.0  0.13018  0.88457  0.89460  1.0000
  I   I205      1.0  0.63283  0.03792  0.20857  1.0000
  I   I206      1.0  0.62929  0.03782  0.55315  1.0000
  I   I207      1.0  0.63147  0.97968  0.91567  1.0000
  I   I208      1.0  0.40075  0.32969  0.48379  1.0000
  I   I209      1.0  0.40001  0.41083  0.73361  1.0000
  I   I210      1.0  0.45067  0.38127  0.12876  1.0000
  I   I211      1.0  0.42114  0.70929  0.44780  1.0000
  I   I212      1.0  0.39285  0.66577  0.87120  1.0000
  I   I213      1.0  0.35865  0.66508  0.21501  1.0000
  I   I214      1.0  0.21738  0.90795  0.90629  1.0000
  I   I215      1.0  0.45458  0.83747  0.35464  1.0000
  I   I216      1.0  0.49055  0.78228  0.87231  1.0000
  I   I217      1.0  0.65209  0.23093  0.44562  1.0000
  I   I218      1.0  0.64713  0.22449  0.70316  1.0000
  I   I219      1.0  0.67929  0.22971  0.05744  1.0000
  I   I220      1.0  0.68010  0.40894  0.11237  1.0000
  I   I221      1.0  0.66852  0.40248  0.42034  1.0000
  I   I222      1.0  0.67985  0.38533  0.75193  1.0000
  I   I223      1.0  0.75879  0.52567  0.09564  1.0000
  I   I224      1.0  0.75007  0.55345  0.42064  1.0000
  I   I225      1.0  0.77505  0.50585  0.78361  1.0000
  I   I226      1.0  0.75656  0.74109  0.22792  1.0000
  I   I227      1.0  0.77095  0.75434  0.59209  1.0000
  I   I228      1.0  0.77413  0.75860  0.93090  1.0000
  I   I229      1.0  0.86858  0.03389  0.25376  1.0000
  I   I230      1.0  0.88271  0.04919  0.55554  1.0000
  I   I231      1.0  0.90588  0.04244  0.90938  1.0000
  I   I232      1.0  0.02535  0.23427  0.98145  1.0000
  I   I233      1.0  0.01606  0.26115  0.30462  1.0000
  I   I234      1.0  0.03598  0.23807  0.68759  1.0000
  I   I235      1.0  0.98226  0.50900  0.19291  1.0000
  I   I236      1.0  0.00641  0.51589  0.55102  1.0000
  I   I237      1.0  0.99987  0.52311  0.92761  1.0000
  I   I238      1.0  0.86069  0.92442  0.20529  1.0000
  I   I239      1.0  0.86342  0.90561  0.50829  1.0000
  I   I240      1.0  0.87491  0.91247  0.87518  1.0000
  I   I241      1.0  0.35418  0.99212  0.01474  1.0000
  I   I242      1.0  0.26856  0.02570  0.35317  1.0000
  I   I243      1.0  0.35528  0.04946  0.61952  1.0000
  I   I244      1.0  0.14555  0.31123  0.22261  1.0000
  I   I245      1.0  0.14857  0.31667  0.55019  1.0000
  I   I246      1.0  0.15336  0.33006  0.86512  1.0000
  I   I247      1.0  0.09105  0.59173  0.53255  1.0000
  I   I248      1.0  0.08672  0.59128  0.87365  1.0000
  I   I249      1.0  0.08575  0.58608  0.22304  1.0000
  I   I250      1.0  0.09850  0.79670  0.31998  1.0000
  I   I251      1.0  0.11841  0.81863  0.63951  1.0000
  I   I252      1.0  0.10836  0.81680  0.98578  1.0000
  I   I253      1.0  0.59917  0.98562  0.29138  1.0000
  I   I254      1.0  0.59800  0.96832  0.61906  1.0000
  I   I255      1.0  0.55273  0.97939  0.00136  1.0000
  I   I256      1.0  0.31582  0.33343  0.52016  1.0000
  I   I257      1.0  0.35615  0.37284  0.84942  1.0000
  I   I258      1.0  0.41906  0.31273  0.07103  1.0000
  I   I259      1.0  0.46641  0.60620  0.44745  1.0000
  I   I260      1.0  0.38068  0.61456  0.00178  1.0000
  I   I261      1.0  0.38354  0.58333  0.32847  1.0000
  I   I262      1.0  0.19134  0.93579  0.73042  1.0000
  I   I263      1.0  0.39651  0.92990  0.32041  1.0000
  I   I264      1.0  0.48418  0.73262  0.72329  1.0000
  I   I265      1.0  0.62406  0.15659  0.49556  1.0000
  I   I266      1.0  0.64297  0.14090  0.78254  1.0000
  I   I267      1.0  0.68527  0.13765  0.12702  1.0000
  I   I268      1.0  0.65079  0.34447  0.19359  1.0000
  I   I269      1.0  0.63174  0.34128  0.48792  1.0000
  I   I270      1.0  0.64566  0.32235  0.80848  1.0000
  I   I271      1.0  0.71013  0.48573  0.20443  1.0000
  I   I272      1.0  0.74005  0.46084  0.43697  1.0000
  I   I273      1.0  0.72265  0.46079  0.85019  1.0000
  I   I274      1.0  0.70864  0.70062  0.32321  1.0000
  I   I275      1.0  0.72075  0.71769  0.67740  1.0000
  I   I276      1.0  0.72807  0.70604  0.99392  1.0000
  I   I277      1.0  0.77203  0.09059  0.32538  1.0000
  I   I278      1.0  0.80050  0.07291  0.65109  1.0000
  I   I279      1.0  0.81803  0.05925  0.98057  1.0000
  I   I280      1.0  0.96665  0.20652  0.09752  1.0000
  I   I281      1.0  0.98856  0.21898  0.42123  1.0000
  I   I282      1.0  0.95215  0.22935  0.76343  1.0000
  I   I283      1.0  0.92907  0.47138  0.25069  1.0000
  I   I284      1.0  0.96198  0.46916  0.65077  1.0000
  I   I285      1.0  0.94833  0.47005  0.94905  1.0000
  I   I286      1.0  0.87146  0.84495  0.30129  1.0000
  I   I287      1.0  0.84497  0.83615  0.59569  1.0000
  I   I288      1.0  0.85962  0.83754  0.94681  1.0000
  I   I289      1.0  0.26698  0.05769  0.91607  1.0000
  I   I290      1.0  0.08883  0.10773  0.23738  1.0000
  I   I291      1.0  0.17688  0.06024  0.63665  1.0000
  I   I292      1.0  0.07386  0.44160  0.06125  1.0000
  I   I293      1.0  0.06478  0.44884  0.38857  1.0000
  I   I294      1.0  0.07734  0.46964  0.71624  1.0000
  I   I295      1.0  0.95265  0.72514  0.38595  1.0000
  I   I296      1.0  0.93961  0.69786  0.73810  1.0000
  I   I297      1.0  0.92357  0.71854  0.02681  1.0000
  I   I298      1.0  0.94966  0.93002  0.13894  1.0000
  I   I299      1.0  0.99365  0.84446  0.50928  1.0000
  I   I300      1.0  0.97667  0.88996  0.82694  1.0000
  I   I301      1.0  0.44616  0.14058  0.10918  1.0000
  I   I302      1.0  0.46433  0.07577  0.46239  1.0000
  I   I303      1.0  0.45075  0.09478  0.81466  1.0000
  I   I304      1.0  0.27917  0.45540  0.25853  1.0000
  I   I305      1.0  0.22546  0.51284  0.62095  1.0000
  I   I306      1.0  0.26101  0.44638  0.99122  1.0000
  I   I307      1.0  0.26639  0.69655  0.56256  1.0000
  I   I308      1.0  0.23590  0.61559  0.78634  1.0000
  I   I309      1.0  0.19168  0.68100  0.31498  1.0000
  I   I310      1.0  0.29556  0.89568  0.70876  1.0000
  I   I311      1.0  0.26329  0.90289  0.14511  1.0000
  I   I312      1.0  0.38841  0.01331  0.27217  1.0000
  I   I313      1.0  0.51850  0.22169  0.29582  1.0000
  I   I314      1.0  0.47094  0.25499  0.64068  1.0000
  I   I315      1.0  0.51501  0.24456  0.99012  1.0000
  I   I316      1.0  0.50417  0.46797  0.01522  1.0000
  I   I317      1.0  0.48473  0.50496  0.33504  1.0000
  I   I318      1.0  0.49036  0.45993  0.67569  1.0000
  I   I319      1.0  0.58678  0.58313  0.01448  1.0000
  I   I320      1.0  0.56254  0.64063  0.31332  1.0000
  I   I321      1.0  0.59390  0.57253  0.65647  1.0000
  I   I322      1.0  0.57944  0.84544  0.14900  1.0000
  I   I323      1.0  0.60277  0.84426  0.51534  1.0000
  I   I324      1.0  0.59578  0.83602  0.81852  1.0000
  I   I325      1.0  0.78090  0.21224  0.18094  1.0000
  I   I326      1.0  0.76709  0.22583  0.48742  1.0000
  I   I327      1.0  0.79057  0.21283  0.81035  1.0000
  I   I328      1.0  0.84253  0.37298  0.96810  1.0000
  I   I329      1.0  0.85145  0.35972  0.24653  1.0000
  I   I330      1.0  0.85169  0.36610  0.60417  1.0000
  I   I331      1.0  0.80477  0.62035  0.11301  1.0000
  I   I332      1.0  0.82639  0.58783  0.48208  1.0000
  I   I333      1.0  0.81592  0.62123  0.79339  1.0000
  I   I334      1.0  0.71053  0.92657  0.12811  1.0000
  I   I335      1.0  0.68379  0.94629  0.45566  1.0000
  I   I336      1.0  0.71491  0.92110  0.81090  1.0000
  I   I337      1.0  0.20836  0.14013  0.80500  1.0000
  I   I338      1.0  0.12487  0.16984  0.15948  1.0000
  I   I339      1.0  0.13268  0.13818  0.50802  1.0000
  I   I340      1.0  0.12932  0.47875  0.99666  1.0000
  I   I341      1.0  0.13247  0.47760  0.30996  1.0000
  I   I342      1.0  0.13926  0.49142  0.62590  1.0000
  I   I343      1.0  0.99302  0.76633  0.27816  1.0000
  I   I344      1.0  0.97298  0.75348  0.62255  1.0000
  I   I345      1.0  0.96413  0.77304  0.97453  1.0000
  I   I346      1.0  0.98050  0.98893  0.07155  1.0000
  I   I347      1.0  0.95737  0.94472  0.43954  1.0000
  I   I348      1.0  0.96251  0.96082  0.71445  1.0000
  I   I349      1.0  0.51359  0.15384  0.04467  1.0000
  I   I350      1.0  0.47258  0.15278  0.38903  1.0000
  I   I351      1.0  0.48199  0.15038  0.74160  1.0000
  I   I352      1.0  0.36461  0.43151  0.21042  1.0000
  I   I353      1.0  0.28426  0.52682  0.51260  1.0000
  I   I354      1.0  0.21964  0.54038  0.90072  1.0000
  I   I355      1.0  0.26786  0.75012  0.43812  1.0000
  I   I356      1.0  0.26790  0.69068  0.77144  1.0000
  I   I357      1.0  0.16771  0.75144  0.17879  1.0000
  I   I358      1.0  0.39829  0.85639  0.80231  1.0000
  I   I359      1.0  0.29111  0.83272  0.26949  1.0000
  I   I360      1.0  0.45332  0.96985  0.14510  1.0000
  I   I361      1.0  0.52710  0.29264  0.19352  1.0000
  I   I362      1.0  0.49700  0.32486  0.55163  1.0000
  I   I363      1.0  0.52396  0.30854  0.88617  1.0000
  I   I364      1.0  0.56024  0.49952  0.93114  1.0000
  I   I365      1.0  0.53990  0.52941  0.24805  1.0000
  I   I366      1.0  0.53566  0.51300  0.61772  1.0000
  I   I367      1.0  0.61699  0.63944  0.93778  1.0000
  I   I368      1.0  0.61342  0.66872  0.20024  1.0000
  I   I369      1.0  0.65293  0.59103  0.53597  1.0000
  I   I370      1.0  0.62602  0.88745  0.08456  1.0000
  I   I371      1.0  0.65262  0.87429  0.39014  1.0000
  I   I372      1.0  0.62930  0.89495  0.77434  1.0000
  I   I373      1.0  0.86952  0.18748  0.09298  1.0000
  I   I374      1.0  0.84703  0.20096  0.38626  1.0000
  I   I375      1.0  0.88266  0.17735  0.71236  1.0000
  I   I376      1.0  0.90275  0.39117  0.85839  1.0000
  I   I377      1.0  0.90058  0.39264  0.16295  1.0000
  I   I378      1.0  0.91501  0.39926  0.53285  1.0000
  I   I379      1.0  0.85979  0.65802  0.04181  1.0000
  I   I380      1.0  0.85408  0.64269  0.38605  1.0000
  I   I381      1.0  0.87570  0.65326  0.69784  1.0000
  I   I382      1.0  0.71288  0.00098  0.03922  1.0000
  I   I383      1.0  0.71849  0.00291  0.35246  1.0000
  I   I384      1.0  0.71550  0.00259  0.70176  1.0000
