data_image0
_chemical_formula_structural       Ti96I384
_chemical_formula_sum              "Ti96 I384"
_cell_length_a       62.3215
_cell_length_b       62.2416
_cell_length_c       30.3275
_cell_angle_alpha    88.7757
_cell_angle_beta     88.7757
_cell_angle_gamma    62.1586

_space_group_name_H-M_alt    "P 1"
_space_group_IT_number       1

loop_
  _space_group_symop_operation_xyz
  'x, y, z'

loop_
  _atom_site_type_symbol
  _atom_site_label
  _atom_site_symmetry_multiplicity
  _atom_site_fract_x
  _atom_site_fract_y
  _atom_site_fract_z
  _atom_site_occupancy
  Ti  Ti1       1.0  0.62485  0.98402  0.62414  1.0000
  Ti  Ti2       1.0  0.45320  0.17370  0.30416  1.0000
  Ti  Ti3       1.0  0.04495  0.49385  0.15017  1.0000
  Ti  Ti4       1.0  0.46654  0.46903  0.79216  1.0000
  Ti  Ti5       1.0  0.21157  0.77748  0.03018  1.0000
  Ti  Ti6       1.0  0.47810  0.10951  0.74313  1.0000
  Ti  Ti7       1.0  0.01959  0.92080  0.63102  1.0000
  Ti  Ti8       1.0  0.20954  0.57910  0.33831  1.0000
  Ti  Ti9       1.0  0.19041  0.98003  0.83584  1.0000
  Ti  Ti10      1.0  0.99923  0.83466  0.80725  1.0000
  Ti  Ti11      1.0  0.34736  0.54231  0.07660  1.0000
  Ti  Ti12      1.0  0.18520  0.71602  0.55036  1.0000
  Ti  Ti13      1.0  0.38760  0.32969  0.36809  1.0000
  Ti  Ti14      1.0  0.11340  0.98524  0.46519  1.0000
  Ti  Ti15      1.0  0.40765  0.84864  0.11789  1.0000
  Ti  Ti16      1.0  0.99177  0.61149  0.85599  1.0000
  Ti  Ti17      1.0  0.11216  0.27649  0.22427  1.0000
  Ti  Ti18      1.0  0.76869  0.57395  0.64800  1.0000
  Ti  Ti19      1.0  0.93178  0.92008  0.44554  1.0000
  Ti  Ti20      1.0  0.22673  0.14833  0.67753  1.0000
  Ti  Ti21      1.0  0.76615  0.28480  0.18505  1.0000
  Ti  Ti22      1.0  0.60883  0.74381  0.21294  1.0000
  Ti  Ti23      1.0  0.68420  0.82150  0.97449  1.0000
  Ti  Ti24      1.0  0.25878  0.78129  0.59490  1.0000
  Ti  Ti25      1.0  0.29917  0.31303  0.71396  1.0000
  Ti  Ti26      1.0  0.02807  0.23545  0.30850  1.0000
  Ti  Ti27      1.0  0.08472  0.63701  0.81617  1.0000
  Ti  Ti28      1.0  0.65420  0.51263  0.26510  1.0000
  Ti  Ti29      1.0  0.02428  0.97468  0.15984  1.0000
  Ti  Ti30      1.0  0.91355  0.43704  0.30751  1.0000
  Ti  Ti31      1.0  0.64611  0.39075  0.60426  1.0000
  Ti  Ti32      1.0  0.70466  0.06226  0.97148  1.0000
  Ti  Ti33      1.0  0.32832  0.86206  0.33039  1.0000
  Ti  Ti34      1.0  0.63643  0.77750  0.65438  1.0000
  Ti  Ti35      1.0  0.87523  0.32271  0.90798  1.0000
  Ti  Ti36      1.0  0.06061  0.54298  0.42761  1.0000
  Ti  Ti37      1.0  0.07579  0.23404  0.72716  1.0000
  Ti  Ti38      1.0  0.40352  0.35622  0.63589  1.0000
  Ti  Ti39      1.0  0.41350  0.26784  0.04280  1.0000
  Ti  Ti40      1.0  0.73478  0.72683  0.42653  1.0000
  Ti  Ti41      1.0  0.45265  0.66851  0.40834  1.0000
  Ti  Ti42      1.0  0.78508  0.94819  0.67451  1.0000
  Ti  Ti43      1.0  0.34352  0.10163  0.89160  1.0000
  Ti  Ti44      1.0  0.81679  0.62918  0.28052  1.0000
  Ti  Ti45      1.0  0.40420  0.73856  0.82416  1.0000
  Ti  Ti46      1.0  0.19936  0.10634  0.97044  1.0000
  Ti  Ti47      1.0  0.89320  0.20503  0.91465  1.0000
  Ti  Ti48      1.0  0.46058  0.51110  0.39305  1.0000
  Ti  Ti49      1.0  0.63572  0.92908  0.57904  1.0000
  Ti  Ti50      1.0  0.70232  0.18497  0.62948  1.0000
  Ti  Ti51      1.0  0.46088  0.18147  0.43788  1.0000
  Ti  Ti52      1.0  0.46574  0.44718  0.66994  1.0000
  Ti  Ti53      1.0  0.16196  0.76380  0.08835  1.0000
  Ti  Ti54      1.0  0.43763  0.12718  0.63725  1.0000
  Ti  Ti55      1.0  0.05082  0.87316  0.50870  1.0000
  Ti  Ti56      1.0  0.25001  0.58481  0.40039  1.0000
  Ti  Ti57      1.0  0.25473  0.92112  0.89766  1.0000
  Ti  Ti58      1.0  0.32839  0.12385  0.00323  1.0000
  Ti  Ti59      1.0  0.02246  0.77368  0.91651  1.0000
  Ti  Ti60      1.0  0.20725  0.66212  0.59452  1.0000
  Ti  Ti61      1.0  0.38149  0.82000  0.02066  1.0000
  Ti  Ti62      1.0  0.34913  0.37846  0.41887  1.0000
  Ti  Ti63      1.0  0.17615  0.95137  0.47720  1.0000
  Ti  Ti64      1.0  0.83358  0.57246  0.59869  1.0000
  Ti  Ti65      1.0  0.01919  0.54430  0.83185  1.0000
  Ti  Ti66      1.0  0.45362  0.26175  0.81821  1.0000
  Ti  Ti67      1.0  0.88782  0.97124  0.46982  1.0000
  Ti  Ti68      1.0  0.25573  0.18239  0.62481  1.0000
  Ti  Ti69      1.0  0.78047  0.25478  0.32546  1.0000
  Ti  Ti70      1.0  0.64539  0.69660  0.14446  1.0000
  Ti  Ti71      1.0  0.69537  0.87627  0.03613  1.0000
  Ti  Ti72      1.0  0.94173  0.93597  0.06375  1.0000
  Ti  Ti73      1.0  0.15135  0.57641  0.83820  1.0000
  Ti  Ti74      1.0  0.23365  0.38299  0.72170  1.0000
  Ti  Ti75      1.0  0.01044  0.18790  0.25790  1.0000
  Ti  Ti76      1.0  0.93474  0.38658  0.31155  1.0000
  Ti  Ti77      1.0  0.70822  0.47884  0.24693  1.0000
  Ti  Ti78      1.0  0.98127  0.04772  0.16928  1.0000
  Ti  Ti79      1.0  0.27217  0.89236  0.33773  1.0000
  Ti  Ti80      1.0  0.72886  0.33263  0.56848  1.0000
  Ti  Ti81      1.0  0.69435  0.09961  0.08612  1.0000
  Ti  Ti82      1.0  0.69441  0.74891  0.72368  1.0000
  Ti  Ti83      1.0  0.84008  0.35361  0.82260  1.0000
  Ti  Ti84      1.0  0.10897  0.47017  0.45469  1.0000
  Ti  Ti85      1.0  0.08865  0.23553  0.83235  1.0000
  Ti  Ti86      1.0  0.41053  0.33517  0.78105  1.0000
  Ti  Ti87      1.0  0.44550  0.30266  0.00189  1.0000
  Ti  Ti88      1.0  0.77321  0.74398  0.40392  1.0000
  Ti  Ti89      1.0  0.48667  0.68336  0.52671  1.0000
  Ti  Ti90      1.0  0.76930  0.91883  0.73641  1.0000
  Ti  Ti91      1.0  0.38802  0.69656  0.75013  1.0000
  Ti  Ti92      1.0  0.86389  0.21275  0.56699  1.0000
  Ti  Ti93      1.0  0.82331  0.59074  0.19513  1.0000
  Ti  Ti94      1.0  0.41146  0.54203  0.29254  1.0000
  Ti  Ti95      1.0  0.21812  0.05464  0.99470  1.0000
  Ti  Ti96      1.0  0.85920  0.16438  0.94761  1.0000
  I   I1        1.0  0.83983  0.14296  0.99878  1.0000
  I   I2        1.0  0.43234  0.20247  0.50056  1.0000
  I   I3        1.0  0.60184  0.98103  0.55352  1.0000
  I   I4        1.0  0.17843  0.71592  0.10907  1.0000
  I   I5        1.0  0.48418  0.14971  0.74132  1.0000
  I   I6        1.0  0.42978  0.13065  0.73332  1.0000
  I   I7        1.0  0.27541  0.56454  0.47171  1.0000
  I   I8        1.0  0.26208  0.61955  0.38877  1.0000
  I   I9        1.0  0.25141  0.88464  0.94200  1.0000
  I   I10       1.0  0.03067  0.84930  0.83675  1.0000
  I   I11       1.0  0.37158  0.54545  0.00832  1.0000
  I   I12       1.0  0.19507  0.80272  0.96107  1.0000
  I   I13       1.0  0.36168  0.40757  0.45599  1.0000
  I   I14       1.0  0.20286  0.91771  0.40823  1.0000
  I   I15       1.0  0.40768  0.80444  0.09556  1.0000
  I   I16       1.0  0.98486  0.57565  0.89941  1.0000
  I   I17       1.0  0.43508  0.22971  0.81265  1.0000
  I   I18       1.0  0.78843  0.58004  0.56191  1.0000
  I   I19       1.0  0.23718  0.18192  0.71356  1.0000
  I   I20       1.0  0.37571  0.51150  0.13848  1.0000
  I   I21       1.0  0.74471  0.26613  0.26596  1.0000
  I   I22       1.0  0.69353  0.92100  0.01715  1.0000
  I   I23       1.0  0.67514  0.84820  0.06761  1.0000
  I   I24       1.0  0.63662  0.68832  0.23995  1.0000
  I   I25       1.0  0.25766  0.39760  0.76871  1.0000
  I   I26       1.0  0.03651  0.26897  0.26219  1.0000
  I   I27       1.0  0.13169  0.62880  0.81130  1.0000
  I   I28       1.0  0.75031  0.48093  0.25719  1.0000
  I   I29       1.0  0.97506  0.00500  0.18151  1.0000
  I   I30       1.0  0.95903  0.36009  0.24167  1.0000
  I   I31       1.0  0.77724  0.31039  0.55400  1.0000
  I   I32       1.0  0.71498  0.12533  0.11577  1.0000
  I   I33       1.0  0.30647  0.90414  0.38874  1.0000
  I   I34       1.0  0.82009  0.39956  0.77873  1.0000
  I   I35       1.0  0.09122  0.50948  0.51680  1.0000
  I   I36       1.0  0.62489  0.81626  0.61012  1.0000
  I   I37       1.0  0.08934  0.25051  0.64215  1.0000
  I   I38       1.0  0.45557  0.24714  0.98503  1.0000
  I   I39       1.0  0.08956  0.19634  0.79835  1.0000
  I   I40       1.0  0.47034  0.71828  0.58254  1.0000
  I   I41       1.0  0.81412  0.90508  0.75810  1.0000
  I   I42       1.0  0.79038  0.73412  0.48490  1.0000
  I   I43       1.0  0.31310  0.17154  0.99626  1.0000
  I   I44       1.0  0.78429  0.58030  0.21712  1.0000
  I   I45       1.0  0.36937  0.77824  0.84224  1.0000
  I   I46       1.0  0.21840  0.13428  0.98374  1.0000
  I   I47       1.0  0.87450  0.18168  0.86038  1.0000
  I   I48       1.0  0.42445  0.50023  0.35356  1.0000
  I   I49       1.0  0.66463  0.88999  0.53210  1.0000
  I   I50       1.0  0.48288  0.17203  0.23826  1.0000
  I   I51       1.0  0.41472  0.20019  0.25839  1.0000
  I   I52       1.0  0.44957  0.47609  0.87310  1.0000
  I   I53       1.0  0.20480  0.73805  0.00777  1.0000
  I   I54       1.0  0.43524  0.17071  0.63612  1.0000
  I   I55       1.0  0.02307  0.91811  0.71850  1.0000
  I   I56       1.0  0.20678  0.62672  0.36214  1.0000
  I   I57       1.0  0.20392  0.93812  0.88549  1.0000
  I   I58       1.0  0.01265  0.82528  0.72575  1.0000
  I   I59       1.0  0.96209  0.87784  0.81745  1.0000
  I   I60       1.0  0.18281  0.67011  0.51639  1.0000
  I   I61       1.0  0.34339  0.33643  0.37690  1.0000
  I   I62       1.0  0.31380  0.38633  0.47792  1.0000
  I   I63       1.0  0.09906  0.97184  0.54010  1.0000
  I   I64       1.0  0.98757  0.59542  0.77921  1.0000
  I   I65       1.0  0.03244  0.51543  0.89990  1.0000
  I   I66       1.0  0.48972  0.23929  0.86750  1.0000
  I   I67       1.0  0.90025  0.00024  0.42054  1.0000
  I   I68       1.0  0.22991  0.12447  0.60218  1.0000
  I   I69       1.0  0.75921  0.25484  0.13122  1.0000
  I   I70       1.0  0.68200  0.65594  0.15503  1.0000
  I   I71       1.0  0.71524  0.78023  0.01848  1.0000
  I   I72       1.0  0.96369  0.95712  0.02298  1.0000
  I   I73       1.0  0.06740  0.64297  0.90136  1.0000
  I   I74       1.0  0.98421  0.24231  0.28131  1.0000
  I   I75       1.0  0.04844  0.20414  0.23133  1.0000
  I   I76       1.0  0.69097  0.45642  0.30228  1.0000
  I   I77       1.0  0.69134  0.50120  0.17602  1.0000
  I   I78       1.0  0.06850  0.94178  0.16835  1.0000
  I   I79       1.0  0.24191  0.94104  0.32544  1.0000
  I   I80       1.0  0.67525  0.34342  0.60925  1.0000
  I   I81       1.0  0.74588  0.02605  0.94936  1.0000
  I   I82       1.0  0.66300  0.79360  0.74961  1.0000
  I   I83       1.0  0.88891  0.33219  0.81026  1.0000
  I   I84       1.0  0.05210  0.56065  0.34857  1.0000
  I   I85       1.0  0.11568  0.24069  0.76728  1.0000
  I   I86       1.0  0.36413  0.37538  0.75893  1.0000
  I   I87       1.0  0.43495  0.28450  0.09557  1.0000
  I   I88       1.0  0.68787  0.73673  0.41853  1.0000
  I   I89       1.0  0.44192  0.71236  0.39222  1.0000
  I   I90       1.0  0.78134  0.97073  0.74734  1.0000
  I   I91       1.0  0.41002  0.72563  0.73707  1.0000
  I   I92       1.0  0.83215  0.20184  0.53993  1.0000
  I   I93       1.0  0.79811  0.61639  0.13154  1.0000
  I   I94       1.0  0.49942  0.48726  0.34830  1.0000
  I   I95       1.0  0.22418  0.03874  0.07647  1.0000
  I   I96       1.0  0.89310  0.12586  0.92318  1.0000
  I   I97       1.0  0.07171  0.48121  0.08032  1.0000
  I   I98       1.0  0.66907  0.94819  0.58981  1.0000
  I   I99       1.0  0.45801  0.13144  0.29586  1.0000
  I   I100      1.0  0.43993  0.44283  0.75187  1.0000
  I   I101      1.0  0.50476  0.42608  0.78089  1.0000
  I   I102      1.0  0.26048  0.75649  0.01601  1.0000
  I   I103      1.0  0.97613  0.93075  0.61923  1.0000
  I   I104      1.0  0.04320  0.90923  0.45673  1.0000
  I   I105      1.0  0.17659  0.02562  0.86391  1.0000
  I   I106      1.0  0.17414  0.65214  0.63030  1.0000
  I   I107      1.0  0.97535  0.80863  0.85818  1.0000
  I   I108      1.0  0.23419  0.68792  0.54760  1.0000
  I   I109      1.0  0.34812  0.80763  0.02149  1.0000
  I   I110      1.0  0.40527  0.28307  0.39172  1.0000
  I   I111      1.0  0.07932  0.98276  0.41706  1.0000
  I   I112      1.0  0.85764  0.53942  0.53360  1.0000
  I   I113      1.0  0.04883  0.52756  0.76547  1.0000
  I   I114      1.0  0.12446  0.23097  0.21684  1.0000
  I   I115      1.0  0.91830  0.90857  0.37181  1.0000
  I   I116      1.0  0.86453  0.98903  0.54460  1.0000
  I   I117      1.0  0.26028  0.16778  0.53794  1.0000
  I   I118      1.0  0.65210  0.70744  0.05903  1.0000
  I   I119      1.0  0.59594  0.78206  0.25974  1.0000
  I   I120      1.0  0.92875  0.96930  0.12264  1.0000
  I   I121      1.0  0.16757  0.54300  0.77195  1.0000
  I   I122      1.0  0.24832  0.32976  0.70704  1.0000
  I   I123      1.0  0.00806  0.26832  0.37320  1.0000
  I   I124      1.0  0.93301  0.46762  0.31776  1.0000
  I   I125      1.0  0.62168  0.55485  0.23476  1.0000
  I   I126      1.0  0.00105  0.07078  0.20396  1.0000
  I   I127      1.0  0.28868  0.86090  0.40077  1.0000
  I   I128      1.0  0.60925  0.40460  0.65363  1.0000
  I   I129      1.0  0.72943  0.07914  0.01861  1.0000
  I   I130      1.0  0.02258  0.57147  0.48310  1.0000
  I   I131      1.0  0.64230  0.74192  0.59697  1.0000
  I   I132      1.0  0.81788  0.37655  0.89296  1.0000
  I   I133      1.0  0.40023  0.30642  0.98399  1.0000
  I   I134      1.0  0.39627  0.39618  0.59862  1.0000
  I   I135      1.0  0.41332  0.31536  0.69702  1.0000
  I   I136      1.0  0.76182  0.98539  0.62174  1.0000
  I   I137      1.0  0.73939  0.74779  0.34367  1.0000
  I   I138      1.0  0.47333  0.63117  0.35659  1.0000
  I   I139      1.0  0.39119  0.72182  0.90362  1.0000
  I   I140      1.0  0.85273  0.23971  0.63301  1.0000
  I   I141      1.0  0.76769  0.63793  0.29977  1.0000
  I   I142      1.0  0.37592  0.53338  0.27945  1.0000
  I   I143      1.0  0.24500  0.01498  0.94934  1.0000
  I   I144      1.0  0.91827  0.21039  0.97983  1.0000
  I   I145      1.0  0.65900  0.90315  0.64920  1.0000
  I   I146      1.0  0.42147  0.18652  0.38345  1.0000
  I   I147      1.0  0.01114  0.54043  0.15335  1.0000
  I   I148      1.0  0.49450  0.40477  0.65700  1.0000
  I   I149      1.0  0.16659  0.81157  0.06511  1.0000
  I   I150      1.0  0.48564  0.08940  0.66232  1.0000
  I   I151      1.0  0.09536  0.84345  0.51326  1.0000
  I   I152      1.0  0.20185  0.58938  0.43304  1.0000
  I   I153      1.0  0.18001  0.99806  0.75313  1.0000
  I   I154      1.0  0.28732  0.12809  0.05100  1.0000
  I   I155      1.0  0.32359  0.58053  0.12848  1.0000
  I   I156      1.0  0.14432  0.72707  0.58692  1.0000
  I   I157      1.0  0.38639  0.88667  0.16405  1.0000
  I   I158      1.0  0.21830  0.94686  0.50815  1.0000
  I   I159      1.0  0.36325  0.85944  0.07240  1.0000
  I   I160      1.0  0.82538  0.61329  0.56289  1.0000
  I   I161      1.0  0.07912  0.31361  0.18067  1.0000
  I   I162      1.0  0.76239  0.56621  0.72874  1.0000
  I   I163      1.0  0.85315  0.98391  0.40945  1.0000
  I   I164      1.0  0.22009  0.22889  0.60791  1.0000
  I   I165      1.0  0.82656  0.23747  0.33457  1.0000
  I   I166      1.0  0.59498  0.76183  0.13082  1.0000
  I   I167      1.0  0.70708  0.80408  0.90354  1.0000
  I   I168      1.0  0.21582  0.80708  0.56826  1.0000
  I   I169      1.0  0.28342  0.36094  0.67419  1.0000
  I   I170      1.0  0.31596  0.30865  0.79356  1.0000
  I   I171      1.0  0.10701  0.58355  0.83400  1.0000
  I   I172      1.0  0.87061  0.47372  0.28772  1.0000
  I   I173      1.0  0.97138  0.05242  0.08147  1.0000
  I   I174      1.0  0.96531  0.40831  0.31393  1.0000
  I   I175      1.0  0.61918  0.39953  0.53145  1.0000
  I   I176      1.0  0.65003  0.12885  0.11328  1.0000
  I   I177      1.0  0.29998  0.89296  0.26213  1.0000
  I   I178      1.0  0.65715  0.73670  0.71817  1.0000
  I   I179      1.0  0.91806  0.28894  0.90257  1.0000
  I   I180      1.0  0.15559  0.45508  0.45855  1.0000
  I   I181      1.0  0.04042  0.22377  0.71198  1.0000
  I   I182      1.0  0.40682  0.30503  0.84735  1.0000
  I   I183      1.0  0.37042  0.28228  0.07809  1.0000
  I   I184      1.0  0.73001  0.77745  0.44438  1.0000
  I   I185      1.0  0.49734  0.65139  0.45451  1.0000
  I   I186      1.0  0.74792  0.94079  0.81331  1.0000
  I   I187      1.0  0.89866  0.17030  0.59159  1.0000
  I   I188      1.0  0.85076  0.61797  0.21478  1.0000
  I   I189      1.0  0.42318  0.68678  0.81846  1.0000
  I   I190      1.0  0.15463  0.14046  0.95115  1.0000
  I   I191      1.0  0.73398  0.19797  0.59142  1.0000
  I   I192      1.0  0.44799  0.55253  0.32437  1.0000
  I   I193      1.0  0.60202  0.92094  0.55605  1.0000
  I   I194      1.0  0.70589  0.15086  0.57957  1.0000
  I   I195      1.0  0.01598  0.47758  0.15805  1.0000
  I   I196      1.0  0.48355  0.50245  0.79937  1.0000
  I   I197      1.0  0.34031  0.07450  0.83178  1.0000
  I   I198      1.0  0.38986  0.14382  0.64402  1.0000
  I   I199      1.0  0.03077  0.85331  0.46484  1.0000
  I   I200      1.0  0.28691  0.56409  0.34253  1.0000
  I   I201      1.0  0.14691  0.98655  0.84221  1.0000
  I   I202      1.0  0.06348  0.75228  0.94503  1.0000
  I   I203      1.0  0.79262  0.30349  0.15279  1.0000
  I   I204      1.0  0.18852  0.75520  0.54434  1.0000
  I   I205      1.0  0.33411  0.40525  0.34431  1.0000
  I   I206      1.0  0.15745  0.98810  0.40938  1.0000
  I   I207      1.0  0.38017  0.84695  0.94762  1.0000
  I   I208      1.0  0.94416  0.64305  0.87575  1.0000
  I   I209      1.0  0.15825  0.26803  0.23383  1.0000
  I   I210      1.0  0.72385  0.58340  0.63284  1.0000
  I   I211      1.0  0.88942  0.92301  0.47642  1.0000
  I   I212      1.0  0.18367  0.18153  0.67430  1.0000
  I   I213      1.0  0.77676  0.29868  0.33763  1.0000
  I   I214      1.0  0.61774  0.68066  0.11124  1.0000
  I   I215      1.0  0.64461  0.81981  0.97121  1.0000
  I   I216      1.0  0.29082  0.79547  0.58519  1.0000
  I   I217      1.0  0.34052  0.30805  0.68464  1.0000
  I   I218      1.0  0.99906  0.16705  0.32053  1.0000
  I   I219      1.0  0.18970  0.58317  0.81153  1.0000
  I   I220      1.0  0.62612  0.50760  0.32964  1.0000
  I   I221      1.0  0.02107  0.96448  0.25195  1.0000
  I   I222      1.0  0.90797  0.42352  0.39618  1.0000
  I   I223      1.0  0.67098  0.41922  0.61189  1.0000
  I   I224      1.0  0.66106  0.08836  0.01910  1.0000
  I   I225      1.0  0.33499  0.82481  0.28611  1.0000
  I   I226      1.0  0.73488  0.72105  0.68540  1.0000
  I   I227      1.0  0.88348  0.35910  0.93174  1.0000
  I   I228      1.0  0.10356  0.49404  0.36862  1.0000
  I   I229      1.0  0.12713  0.21672  0.88682  1.0000
  I   I230      1.0  0.42857  0.31751  0.59011  1.0000
  I   I231      1.0  0.47396  0.30181  0.93461  1.0000
  I   I232      1.0  0.75856  0.68074  0.43710  1.0000
  I   I233      1.0  0.40843  0.67369  0.42624  1.0000
  I   I234      1.0  0.78215  0.91036  0.63371  1.0000
  I   I235      1.0  0.35182  0.06396  0.95849  1.0000
  I   I236      1.0  0.83061  0.57533  0.28496  1.0000
  I   I237      1.0  0.43666  0.75647  0.82242  1.0000
  I   I238      1.0  0.19294  0.09969  0.05102  1.0000
  I   I239      1.0  0.87760  0.18807  0.98687  1.0000
  I   I240      1.0  0.38589  0.59019  0.29371  1.0000
  I   I241      1.0  0.61196  0.96908  0.69891  1.0000
  I   I242      1.0  0.49252  0.14989  0.36290  1.0000
  I   I243      1.0  0.06799  0.48662  0.22483  1.0000
  I   I244      1.0  0.44788  0.49260  0.71097  1.0000
  I   I245      1.0  0.13364  0.75707  0.03918  1.0000
  I   I246      1.0  0.47919  0.06733  0.77935  1.0000
  I   I247      1.0  0.02899  0.87230  0.59824  1.0000
  I   I248      1.0  0.16721  0.60219  0.30305  1.0000
  I   I249      1.0  0.23936  0.95485  0.96556  1.0000
  I   I250      1.0  0.02155  0.73441  0.89066  1.0000
  I   I251      1.0  0.32680  0.52417  0.02757  1.0000
  I   I252      1.0  0.23735  0.61549  0.58548  1.0000
  I   I253      1.0  0.39310  0.32163  0.28731  1.0000
  I   I254      1.0  0.14776  0.92930  0.47010  1.0000
  I   I255      1.0  0.45091  0.82511  0.15236  1.0000
  I   I256      1.0  0.03991  0.58333  0.84248  1.0000
  I   I257      1.0  0.10143  0.27696  0.30978  1.0000
  I   I258      1.0  0.85824  0.57974  0.65606  1.0000
  I   I259      1.0  0.95605  0.94199  0.41065  1.0000
  I   I260      1.0  0.29245  0.19225  0.64404  1.0000
  I   I261      1.0  0.72083  0.31754  0.15373  1.0000
  I   I262      1.0  0.57045  0.74491  0.25126  1.0000
  I   I263      1.0  0.67842  0.86785  0.94958  1.0000
  I   I264      1.0  0.27999  0.74286  0.54842  1.0000
  I   I265      1.0  0.19399  0.40145  0.76980  1.0000
  I   I266      1.0  0.97768  0.20124  0.19675  1.0000
  I   I267      1.0  0.08157  0.61399  0.74406  1.0000
  I   I268      1.0  0.63304  0.49074  0.22861  1.0000
  I   I269      1.0  0.93795  0.08186  0.20683  1.0000
  I   I270      1.0  0.95288  0.35512  0.37918  1.0000
  I   I271      1.0  0.72699  0.29827  0.52134  1.0000
  I   I272      1.0  0.69412  0.09827  0.91932  1.0000
  I   I273      1.0  0.36160  0.87775  0.29564  1.0000
  I   I274      1.0  0.68384  0.77392  0.63769  1.0000
  I   I275      1.0  0.86837  0.31586  0.98837  1.0000
  I   I276      1.0  0.09359  0.55841  0.42544  1.0000
  I   I277      1.0  0.10973  0.19597  0.67631  1.0000
  I   I278      1.0  0.43073  0.36051  0.71055  1.0000
  I   I279      1.0  0.41924  0.22263  0.03888  1.0000
  I   I280      1.0  0.80918  0.71722  0.35388  1.0000
  I   I281      1.0  0.44367  0.68860  0.50455  1.0000
  I   I282      1.0  0.82217  0.95505  0.65582  1.0000
  I   I283      1.0  0.29391  0.13122  0.90435  1.0000
  I   I284      1.0  0.79764  0.67499  0.25830  1.0000
  I   I285      1.0  0.35551  0.69999  0.81387  1.0000
  I   I286      1.0  0.20500  0.10156  0.87632  1.0000
  I   I287      1.0  0.82107  0.17775  0.89931  1.0000
  I   I288      1.0  0.45886  0.49048  0.46546  1.0000
  I   I289      1.0  0.59121  0.02864  0.64507  1.0000
  I   I290      1.0  0.70251  0.19564  0.71649  1.0000
  I   I291      1.0  0.46813  0.21600  0.40543  1.0000
  I   I292      1.0  0.43567  0.44631  0.60883  1.0000
  I   I293      1.0  0.12614  0.78807  0.14103  1.0000
  I   I294      1.0  0.52521  0.08792  0.77136  1.0000
  I   I295      1.0  0.01700  0.96207  0.62975  1.0000
  I   I296      1.0  0.20206  0.53951  0.34651  1.0000
  I   I297      1.0  0.24557  0.94673  0.82362  1.0000
  I   I298      1.0  0.36523  0.10231  0.06196  1.0000
  I   I299      1.0  0.03681  0.78890  0.84090  1.0000
  I   I300      1.0  0.21542  0.67773  0.66602  1.0000
  I   I301      1.0  0.42045  0.86515  0.04485  1.0000
  I   I302      1.0  0.38219  0.33693  0.46836  1.0000
  I   I303      1.0  0.10529  0.03175  0.46400  1.0000
  I   I304      1.0  0.81805  0.53755  0.65249  1.0000
  I   I305      1.0  0.00282  0.64222  0.89993  1.0000
  I   I306      1.0  0.40685  0.36793  0.83189  1.0000
  I   I307      1.0  0.96319  0.87929  0.47897  1.0000
  I   I308      1.0  0.21534  0.12579  0.74631  1.0000
  I   I309      1.0  0.79960  0.24987  0.22971  1.0000
  I   I310      1.0  0.65620  0.73233  0.18467  1.0000
  I   I311      1.0  0.69057  0.89386  0.11546  1.0000
  I   I312      1.0  0.90134  0.94323  0.03010  1.0000
  I   I313      1.0  0.16524  0.55803  0.91656  1.0000
  I   I314      1.0  0.31587  0.26599  0.69942  1.0000
  I   I315      1.0  0.05563  0.19533  0.35443  1.0000
  I   I316      1.0  0.92922  0.42268  0.23024  1.0000
  I   I317      1.0  0.69011  0.51939  0.30580  1.0000
  I   I318      1.0  0.02917  0.01920  0.13737  1.0000
  I   I319      1.0  0.36040  0.85156  0.39262  1.0000
  I   I320      1.0  0.71817  0.37155  0.52531  1.0000
  I   I321      1.0  0.68045  0.03561  0.95217  1.0000
  I   I322      1.0  0.59253  0.79564  0.69356  1.0000
  I   I323      1.0  0.84085  0.31285  0.86539  1.0000
  I   I324      1.0  0.09805  0.43637  0.47566  1.0000
  I   I325      1.0  0.05699  0.27337  0.88032  1.0000
  I   I326      1.0  0.45886  0.30534  0.80711  1.0000
  I   I327      1.0  0.48518  0.29107  0.05307  1.0000
  I   I328      1.0  0.73354  0.72449  0.51586  1.0000
  I   I329      1.0  0.52262  0.69385  0.50224  1.0000
  I   I330      1.0  0.73474  0.95824  0.69059  1.0000
  I   I331      1.0  0.35370  0.72456  0.69241  1.0000
  I   I332      1.0  0.33539  0.13563  0.83691  1.0000
  I   I333      1.0  0.85458  0.55951  0.14920  1.0000
  I   I334      1.0  0.42084  0.54382  0.20953  1.0000
  I   I335      1.0  0.25248  0.06970  0.96657  1.0000
  I   I336      1.0  0.92037  0.20786  0.85089  1.0000
  I   I337      1.0  0.65022  0.01042  0.64218  1.0000
  I   I338      1.0  0.66091  0.22400  0.61388  1.0000
  I   I339      1.0  0.47769  0.14773  0.51247  1.0000
  I   I340      1.0  0.48925  0.46310  0.62186  1.0000
  I   I341      1.0  0.21310  0.75861  0.11138  1.0000
  I   I342      1.0  0.43344  0.12551  0.54735  1.0000
  I   I343      1.0  0.06155  0.90601  0.58347  1.0000
  I   I344      1.0  0.23924  0.55326  0.28015  1.0000
  I   I345      1.0  0.30120  0.90343  0.91691  1.0000
  I   I346      1.0  0.37043  0.10913  0.95133  1.0000
  I   I347      1.0  0.99143  0.79825  0.97979  1.0000
  I   I348      1.0  0.18305  0.71360  0.45834  1.0000
  I   I349      1.0  0.41548  0.78459  0.97344  1.0000
  I   I350      1.0  0.41504  0.35277  0.36705  1.0000
  I   I351      1.0  0.14731  0.98386  0.53706  1.0000
  I   I352      1.0  0.77026  0.61544  0.67178  1.0000
  I   I353      1.0  0.98483  0.53396  0.80608  1.0000
  I   I354      1.0  0.47107  0.25212  0.73952  1.0000
  I   I355      1.0  0.92036  0.94626  0.53378  1.0000
  I   I356      1.0  0.28213  0.13807  0.66845  1.0000
  I   I357      1.0  0.76034  0.25063  0.39463  1.0000
  I   I358      1.0  0.26599  0.76561  0.67345  1.0000
  I   I359      1.0  0.73992  0.84522  0.01203  1.0000
  I   I360      1.0  0.95747  0.89756  0.11643  1.0000
  I   I361      1.0  0.05671  0.68145  0.80010  1.0000
  I   I362      1.0  0.20566  0.40574  0.65433  1.0000
  I   I363      1.0  0.04483  0.14595  0.22873  1.0000
  I   I364      1.0  0.88540  0.39937  0.29731  1.0000
  I   I365      1.0  0.73512  0.43873  0.19627  1.0000
  I   I366      1.0  0.02097  0.96658  0.07641  1.0000
  I   I367      1.0  0.25671  0.87223  0.27709  1.0000
  I   I368      1.0  0.71874  0.34958  0.65175  1.0000
  I   I369      1.0  0.71188  0.06786  0.15009  1.0000
  I   I370      1.0  0.69997  0.73343  0.80610  1.0000
  I   I371      1.0  0.82473  0.33623  0.75414  1.0000
  I   I372      1.0  0.05712  0.49640  0.43034  1.0000
  I   I373      1.0  0.04912  0.27756  0.77267  1.0000
  I   I374      1.0  0.35777  0.36341  0.63114  1.0000
  I   I375      1.0  0.42165  0.35173  0.01605  1.0000
  I   I376      1.0  0.78534  0.78047  0.38800  1.0000
  I   I377      1.0  0.50036  0.64848  0.58614  1.0000
  I   I378      1.0  0.75129  0.88851  0.73177  1.0000
  I   I379      1.0  0.39885  0.65732  0.70532  1.0000
  I   I380      1.0  0.86651  0.24330  0.51280  1.0000
  I   I381      1.0  0.81475  0.64067  0.36495  1.0000
  I   I382      1.0  0.48008  0.53673  0.43503  1.0000
  I   I383      1.0  0.17432  0.07497  0.95977  1.0000
  I   I384      1.0  0.85692  0.24741  0.91045  1.0000
