data_image0
_chemical_formula_structural       Ti96I384
_chemical_formula_sum              "Ti96 I384"
_cell_length_a       37.544
_cell_length_b       37.0125
_cell_length_c       22.1852
_cell_angle_alpha    88.7757
_cell_angle_beta     88.7757
_cell_angle_gamma    62.1586

_space_group_name_H-M_alt    "P 1"
_space_group_IT_number       1

loop_
  _space_group_symop_operation_xyz
  'x, y, z'

loop_
  _atom_site_type_symbol
  _atom_site_label
  _atom_site_symmetry_multiplicity
  _atom_site_fract_x
  _atom_site_fract_y
  _atom_site_fract_z
  _atom_site_occupancy
  Ti  Ti1       1.0  0.17044  0.06070  0.27594  1.0000
  Ti  Ti2       1.0  0.15779  0.05822  0.61479  1.0000
  Ti  Ti3       1.0  0.18666  0.05128  0.95031  1.0000
  Ti  Ti4       1.0  0.15474  0.34555  0.26177  1.0000
  Ti  Ti5       1.0  0.15679  0.35888  0.59097  1.0000
  Ti  Ti6       1.0  0.14857  0.35421  0.93003  1.0000
  Ti  Ti7       1.0  0.17042  0.57663  0.26514  1.0000
  Ti  Ti8       1.0  0.17793  0.56961  0.60358  1.0000
  Ti  Ti9       1.0  0.17271  0.57874  0.93869  1.0000
  Ti  Ti10      1.0  0.13211  0.86163  0.26692  1.0000
  Ti  Ti11      1.0  0.13864  0.85161  0.59646  1.0000
  Ti  Ti12      1.0  0.12779  0.86130  0.92637  1.0000
  Ti  Ti13      1.0  0.40887  0.09059  0.25012  1.0000
  Ti  Ti14      1.0  0.39852  0.09836  0.59860  1.0000
  Ti  Ti15      1.0  0.40966  0.09864  0.91741  1.0000
  Ti  Ti16      1.0  0.42808  0.33392  0.28485  1.0000
  Ti  Ti17      1.0  0.41345  0.34060  0.62059  1.0000
  Ti  Ti18      1.0  0.43586  0.34196  0.93712  1.0000
  Ti  Ti19      1.0  0.38707  0.62635  0.23730  1.0000
  Ti  Ti20      1.0  0.38917  0.62623  0.56470  1.0000
  Ti  Ti21      1.0  0.38382  0.61887  0.91424  1.0000
  Ti  Ti22      1.0  0.44343  0.82047  0.22723  1.0000
  Ti  Ti23      1.0  0.43179  0.82284  0.56757  1.0000
  Ti  Ti24      1.0  0.42836  0.82506  0.90611  1.0000
  Ti  Ti25      1.0  0.68179  0.09025  0.23733  1.0000
  Ti  Ti26      1.0  0.68634  0.07095  0.56847  1.0000
  Ti  Ti27      1.0  0.67841  0.07313  0.90664  1.0000
  Ti  Ti28      1.0  0.61813  0.37369  0.21223  1.0000
  Ti  Ti29      1.0  0.62732  0.37539  0.54721  1.0000
  Ti  Ti30      1.0  0.62024  0.36789  0.88851  1.0000
  Ti  Ti31      1.0  0.65194  0.58666  0.19867  1.0000
  Ti  Ti32      1.0  0.65265  0.58195  0.54263  1.0000
  Ti  Ti33      1.0  0.64849  0.58450  0.87226  1.0000
  Ti  Ti34      1.0  0.67118  0.82574  0.27422  1.0000
  Ti  Ti35      1.0  0.67000  0.82585  0.59577  1.0000
  Ti  Ti36      1.0  0.66719  0.82896  0.93998  1.0000
  Ti  Ti37      1.0  0.90138  0.11412  0.25261  1.0000
  Ti  Ti38      1.0  0.88900  0.11798  0.59910  1.0000
  Ti  Ti39      1.0  0.88242  0.14176  0.91573  1.0000
  Ti  Ti40      1.0  0.91297  0.34995  0.21903  1.0000
  Ti  Ti41      1.0  0.91183  0.33066  0.57049  1.0000
  Ti  Ti42      1.0  0.90527  0.35040  0.89525  1.0000
  Ti  Ti43      1.0  0.89277  0.58734  0.28235  1.0000
  Ti  Ti44      1.0  0.90007  0.59387  0.59172  1.0000
  Ti  Ti45      1.0  0.89720  0.59104  0.93305  1.0000
  Ti  Ti46      1.0  0.92769  0.82266  0.24514  1.0000
  Ti  Ti47      1.0  0.89802  0.82715  0.58002  1.0000
  Ti  Ti48      1.0  0.92581  0.82456  0.90628  1.0000
  Ti  Ti49      1.0  0.12954  0.13989  0.09863  1.0000
  Ti  Ti50      1.0  0.11830  0.13904  0.44163  1.0000
  Ti  Ti51      1.0  0.12002  0.12307  0.78494  1.0000
  Ti  Ti52      1.0  0.08480  0.41808  0.09653  1.0000
  Ti  Ti53      1.0  0.07613  0.41976  0.43330  1.0000
  Ti  Ti54      1.0  0.08014  0.42116  0.76913  1.0000
  Ti  Ti55      1.0  0.10745  0.64370  0.09996  1.0000
  Ti  Ti56      1.0  0.10207  0.64388  0.44431  1.0000
  Ti  Ti57      1.0  0.11587  0.65031  0.76339  1.0000
  Ti  Ti58      1.0  0.06711  0.92377  0.09270  1.0000
  Ti  Ti59      1.0  0.06693  0.91969  0.43435  1.0000
  Ti  Ti60      1.0  0.05861  0.90987  0.74698  1.0000
  Ti  Ti61      1.0  0.34293  0.15195  0.08056  1.0000
  Ti  Ti62      1.0  0.34040  0.15743  0.42977  1.0000
  Ti  Ti63      1.0  0.34269  0.16763  0.75023  1.0000
  Ti  Ti64      1.0  0.37189  0.39927  0.11224  1.0000
  Ti  Ti65      1.0  0.35167  0.40541  0.45098  1.0000
  Ti  Ti66      1.0  0.35527  0.41120  0.78183  1.0000
  Ti  Ti67      1.0  0.31685  0.69774  0.06455  1.0000
  Ti  Ti68      1.0  0.31132  0.70243  0.39719  1.0000
  Ti  Ti69      1.0  0.33145  0.69009  0.72556  1.0000
  Ti  Ti70      1.0  0.37090  0.89198  0.06515  1.0000
  Ti  Ti71      1.0  0.38115  0.89202  0.39351  1.0000
  Ti  Ti72      1.0  0.36798  0.88940  0.72902  1.0000
  Ti  Ti73      1.0  0.61403  0.14357  0.07402  1.0000
  Ti  Ti74      1.0  0.61210  0.14146  0.40766  1.0000
  Ti  Ti75      1.0  0.61013  0.13195  0.73788  1.0000
  Ti  Ti76      1.0  0.55425  0.43740  0.04945  1.0000
  Ti  Ti77      1.0  0.55579  0.44697  0.38493  1.0000
  Ti  Ti78      1.0  0.56297  0.44283  0.71841  1.0000
  Ti  Ti79      1.0  0.59344  0.64808  0.03693  1.0000
  Ti  Ti80      1.0  0.58852  0.64143  0.36942  1.0000
  Ti  Ti81      1.0  0.58130  0.64861  0.71000  1.0000
  Ti  Ti82      1.0  0.61758  0.90374  0.10565  1.0000
  Ti  Ti83      1.0  0.60040  0.90268  0.43071  1.0000
  Ti  Ti84      1.0  0.60053  0.89882  0.77559  1.0000
  Ti  Ti85      1.0  0.82128  0.19115  0.09673  1.0000
  Ti  Ti86      1.0  0.82895  0.17745  0.41508  1.0000
  Ti  Ti87      1.0  0.82028  0.19647  0.74103  1.0000
  Ti  Ti88      1.0  0.83899  0.41630  0.05954  1.0000
  Ti  Ti89      1.0  0.84176  0.39364  0.38984  1.0000
  Ti  Ti90      1.0  0.83228  0.40297  0.72376  1.0000
  Ti  Ti91      1.0  0.82731  0.65406  0.11898  1.0000
  Ti  Ti92      1.0  0.83244  0.67099  0.43360  1.0000
  Ti  Ti93      1.0  0.83515  0.65480  0.76970  1.0000
  Ti  Ti94      1.0  0.86257  0.89300  0.07724  1.0000
  Ti  Ti95      1.0  0.85447  0.88749  0.40379  1.0000
  Ti  Ti96      1.0  0.84120  0.88555  0.75353  1.0000
  I   I1        1.0  0.09229  0.11130  0.33414  1.0000
  I   I2        1.0  0.08589  0.10627  0.67582  1.0000
  I   I3        1.0  0.10459  0.10667  0.00588  1.0000
  I   I4        1.0  0.06801  0.38221  0.33816  1.0000
  I   I5        1.0  0.07105  0.38221  0.66952  1.0000
  I   I6        1.0  0.06816  0.38292  0.98536  1.0000
  I   I7        1.0  0.09422  0.60574  0.34106  1.0000
  I   I8        1.0  0.09701  0.61062  0.67296  1.0000
  I   I9        1.0  0.09933  0.60725  0.99712  1.0000
  I   I10       1.0  0.06123  0.87605  0.31585  1.0000
  I   I11       1.0  0.05724  0.86371  0.65243  1.0000
  I   I12       1.0  0.05744  0.87785  0.00186  1.0000
  I   I13       1.0  0.32732  0.12520  0.31387  1.0000
  I   I14       1.0  0.32025  0.13866  0.64746  1.0000
  I   I15       1.0  0.33275  0.11996  0.97988  1.0000
  I   I16       1.0  0.34919  0.36998  0.34881  1.0000
  I   I17       1.0  0.34031  0.37638  0.69262  1.0000
  I   I18       1.0  0.36011  0.37061  0.00692  1.0000
  I   I19       1.0  0.29811  0.66763  0.28880  1.0000
  I   I20       1.0  0.30712  0.66365  0.62826  1.0000
  I   I21       1.0  0.30339  0.66749  0.96315  1.0000
  I   I22       1.0  0.36912  0.85856  0.28656  1.0000
  I   I23       1.0  0.35212  0.85639  0.62812  1.0000
  I   I24       1.0  0.35336  0.86391  0.96257  1.0000
  I   I25       1.0  0.60200  0.11162  0.30490  1.0000
  I   I26       1.0  0.59902  0.09748  0.63691  1.0000
  I   I27       1.0  0.60296  0.10662  0.96409  1.0000
  I   I28       1.0  0.53111  0.42097  0.28411  1.0000
  I   I29       1.0  0.55239  0.40976  0.61319  1.0000
  I   I30       1.0  0.53627  0.40691  0.94828  1.0000
  I   I31       1.0  0.57718  0.60507  0.27145  1.0000
  I   I32       1.0  0.57362  0.61170  0.60317  1.0000
  I   I33       1.0  0.57152  0.62443  0.92856  1.0000
  I   I34       1.0  0.57952  0.87825  0.32473  1.0000
  I   I35       1.0  0.59539  0.86324  0.66477  1.0000
  I   I36       1.0  0.58688  0.88562  0.00901  1.0000
  I   I37       1.0  0.82417  0.13895  0.32191  1.0000
  I   I38       1.0  0.80752  0.15189  0.65228  1.0000
  I   I39       1.0  0.80115  0.17225  0.98075  1.0000
  I   I40       1.0  0.84045  0.36085  0.27947  1.0000
  I   I41       1.0  0.83438  0.35187  0.62115  1.0000
  I   I42       1.0  0.82638  0.37321  0.95254  1.0000
  I   I43       1.0  0.81420  0.63613  0.34076  1.0000
  I   I44       1.0  0.81685  0.63748  0.65528  1.0000
  I   I45       1.0  0.81170  0.63085  0.01426  1.0000
  I   I46       1.0  0.84352  0.86040  0.29955  1.0000
  I   I47       1.0  0.81279  0.86347  0.65418  1.0000
  I   I48       1.0  0.84991  0.85728  0.97883  1.0000
  I   I49       1.0  0.16905  0.13913  0.20175  1.0000
  I   I50       1.0  0.14854  0.14290  0.54129  1.0000
  I   I51       1.0  0.15871  0.13481  0.87543  1.0000
  I   I52       1.0  0.12294  0.42450  0.20198  1.0000
  I   I53       1.0  0.12276  0.43499  0.52643  1.0000
  I   I54       1.0  0.10627  0.44032  0.87593  1.0000
  I   I55       1.0  0.13547  0.65792  0.20926  1.0000
  I   I56       1.0  0.13976  0.65617  0.54077  1.0000
  I   I57       1.0  0.14109  0.66439  0.88735  1.0000
  I   I58       1.0  0.09482  0.94062  0.19702  1.0000
  I   I59       1.0  0.09232  0.93197  0.53805  1.0000
  I   I60       1.0  0.08455  0.93872  0.85351  1.0000
  I   I61       1.0  0.37437  0.16883  0.18750  1.0000
  I   I62       1.0  0.36252  0.18029  0.52507  1.0000
  I   I63       1.0  0.38812  0.17184  0.84077  1.0000
  I   I64       1.0  0.40192  0.41277  0.22280  1.0000
  I   I65       1.0  0.37710  0.42274  0.56948  1.0000
  I   I66       1.0  0.39207  0.42454  0.88081  1.0000
  I   I67       1.0  0.36659  0.70210  0.17713  1.0000
  I   I68       1.0  0.34712  0.70814  0.49704  1.0000
  I   I69       1.0  0.35062  0.69787  0.84025  1.0000
  I   I70       1.0  0.41815  0.89804  0.16846  1.0000
  I   I71       1.0  0.40692  0.90284  0.50558  1.0000
  I   I72       1.0  0.40096  0.89826  0.83183  1.0000
  I   I73       1.0  0.63845  0.16706  0.18168  1.0000
  I   I74       1.0  0.65061  0.15048  0.50998  1.0000
  I   I75       1.0  0.64205  0.15191  0.84071  1.0000
  I   I76       1.0  0.59581  0.45280  0.15080  1.0000
  I   I77       1.0  0.58961  0.46135  0.48874  1.0000
  I   I78       1.0  0.60031  0.44665  0.83664  1.0000
  I   I79       1.0  0.62350  0.66462  0.14406  1.0000
  I   I80       1.0  0.63358  0.65304  0.45500  1.0000
  I   I81       1.0  0.61517  0.65831  0.80930  1.0000
  I   I82       1.0  0.65757  0.90050  0.20693  1.0000
  I   I83       1.0  0.63119  0.91009  0.53874  1.0000
  I   I84       1.0  0.64522  0.90485  0.86516  1.0000
  I   I85       1.0  0.85068  0.19919  0.20901  1.0000
  I   I86       1.0  0.86178  0.19098  0.52407  1.0000
  I   I87       1.0  0.84254  0.22067  0.85396  1.0000
  I   I88       1.0  0.87245  0.42812  0.15367  1.0000
  I   I89       1.0  0.87038  0.40869  0.49971  1.0000
  I   I90       1.0  0.86132  0.42837  0.82580  1.0000
  I   I91       1.0  0.87443  0.65992  0.21590  1.0000
  I   I92       1.0  0.87446  0.67567  0.53726  1.0000
  I   I93       1.0  0.87097  0.66519  0.87504  1.0000
  I   I94       1.0  0.90915  0.89497  0.18158  1.0000
  I   I95       1.0  0.87738  0.90405  0.51308  1.0000
  I   I96       1.0  0.88293  0.90176  0.84985  1.0000
  I   I97       1.0  0.20773  0.07615  0.05061  1.0000
  I   I98       1.0  0.18876  0.09433  0.37153  1.0000
  I   I99       1.0  0.18938  0.08381  0.70966  1.0000
  I   I100      1.0  0.15738  0.38303  0.03809  1.0000
  I   I101      1.0  0.15541  0.39264  0.35593  1.0000
  I   I102      1.0  0.16139  0.39326  0.69271  1.0000
  I   I103      1.0  0.18357  0.61615  0.04373  1.0000
  I   I104      1.0  0.18200  0.61397  0.35939  1.0000
  I   I105      1.0  0.19137  0.61182  0.68918  1.0000
  I   I106      1.0  0.14349  0.89704  0.01778  1.0000
  I   I107      1.0  0.14305  0.89114  0.37003  1.0000
  I   I108      1.0  0.14429  0.88210  0.69925  1.0000
  I   I109      1.0  0.42477  0.12237  0.02945  1.0000
  I   I110      1.0  0.40999  0.12743  0.36239  1.0000
  I   I111      1.0  0.41794  0.13943  0.68410  1.0000
  I   I112      1.0  0.45306  0.35832  0.05298  1.0000
  I   I113      1.0  0.43472  0.37362  0.38982  1.0000
  I   I114      1.0  0.43553  0.36976  0.71910  1.0000
  I   I115      1.0  0.40139  0.65302  0.00889  1.0000
  I   I116      1.0  0.38980  0.66479  0.33828  1.0000
  I   I117      1.0  0.41191  0.64841  0.66705  1.0000
  I   I118      1.0  0.44728  0.85760  0.99759  1.0000
  I   I119      1.0  0.46040  0.85358  0.33160  1.0000
  I   I120      1.0  0.44960  0.85435  0.66354  1.0000
  I   I121      1.0  0.68670  0.11922  0.99667  1.0000
  I   I122      1.0  0.68887  0.12806  0.33058  1.0000
  I   I123      1.0  0.69498  0.10230  0.67077  1.0000
  I   I124      1.0  0.63102  0.39380  0.99396  1.0000
  I   I125      1.0  0.62652  0.41365  0.31393  1.0000
  I   I126      1.0  0.63740  0.42034  0.66424  1.0000
  I   I127      1.0  0.67074  0.61579  0.96611  1.0000
  I   I128      1.0  0.67546  0.61228  0.29958  1.0000
  I   I129      1.0  0.65868  0.61694  0.64706  1.0000
  I   I130      1.0  0.69571  0.85372  0.04208  1.0000
  I   I131      1.0  0.68071  0.85954  0.37514  1.0000
  I   I132      1.0  0.67984  0.85823  0.71311  1.0000
  I   I133      1.0  0.89698  0.17368  0.02289  1.0000
  I   I134      1.0  0.91044  0.14877  0.36630  1.0000
  I   I135      1.0  0.89900  0.16294  0.68140  1.0000
  I   I136      1.0  0.91504  0.38744  0.99339  1.0000
  I   I137      1.0  0.91648  0.37851  0.33165  1.0000
  I   I138      1.0  0.91367  0.38527  0.66159  1.0000
  I   I139      1.0  0.91007  0.62544  0.04226  1.0000
  I   I140      1.0  0.90883  0.62716  0.37910  1.0000
  I   I141      1.0  0.91441  0.62264  0.70315  1.0000
  I   I142      1.0  0.94290  0.85603  0.00408  1.0000
  I   I143      1.0  0.94222  0.84863  0.35025  1.0000
  I   I144      1.0  0.91171  0.86350  0.68076  1.0000
  I   I145      1.0  0.14751  0.05757  0.16129  1.0000
  I   I146      1.0  0.11725  0.05946  0.50773  1.0000
  I   I147      1.0  0.14398  0.04702  0.85261  1.0000
  I   I148      1.0  0.12118  0.33711  0.15180  1.0000
  I   I149      1.0  0.11976  0.34070  0.49819  1.0000
  I   I150      1.0  0.11795  0.33880  0.81640  1.0000
  I   I151      1.0  0.13584  0.56176  0.16366  1.0000
  I   I152      1.0  0.14197  0.55807  0.50306  1.0000
  I   I153      1.0  0.15819  0.56563  0.82154  1.0000
  I   I154      1.0  0.10449  0.84583  0.15600  1.0000
  I   I155      1.0  0.10778  0.83419  0.48613  1.0000
  I   I156      1.0  0.09656  0.83585  0.81726  1.0000
  I   I157      1.0  0.38109  0.06840  0.14666  1.0000
  I   I158      1.0  0.38065  0.06957  0.49277  1.0000
  I   I159      1.0  0.37779  0.08052  0.81911  1.0000
  I   I160      1.0  0.40541  0.31417  0.18032  1.0000
  I   I161      1.0  0.37682  0.32918  0.51447  1.0000
  I   I162      1.0  0.38454  0.33588  0.85207  1.0000
  I   I163      1.0  0.34326  0.62443  0.13125  1.0000
  I   I164      1.0  0.34690  0.61935  0.45944  1.0000
  I   I165      1.0  0.34538  0.60905  0.81027  1.0000
  I   I166      1.0  0.40077  0.81478  0.12698  1.0000
  I   I167      1.0  0.40252  0.80756  0.46451  1.0000
  I   I168      1.0  0.38563  0.81102  0.78766  1.0000
  I   I169      1.0  0.64766  0.07106  0.13944  1.0000
  I   I170      1.0  0.64128  0.06289  0.46740  1.0000
  I   I171      1.0  0.65309  0.05282  0.80066  1.0000
  I   I172      1.0  0.58087  0.35778  0.12064  1.0000
  I   I173      1.0  0.58912  0.35876  0.46168  1.0000
  I   I174      1.0  0.58236  0.36447  0.78803  1.0000
  I   I175      1.0  0.63124  0.56822  0.09411  1.0000
  I   I176      1.0  0.62717  0.55995  0.43650  1.0000
  I   I177      1.0  0.62318  0.56402  0.76924  1.0000
  I   I178      1.0  0.63198  0.82280  0.16607  1.0000
  I   I179      1.0  0.63592  0.81740  0.49486  1.0000
  I   I180      1.0  0.62479  0.82131  0.84542  1.0000
  I   I181      1.0  0.86694  0.10925  0.14989  1.0000
  I   I182      1.0  0.85750  0.09995  0.49017  1.0000
  I   I183      1.0  0.85769  0.11986  0.80616  1.0000
  I   I184      1.0  0.88582  0.33268  0.10509  1.0000
  I   I185      1.0  0.89688  0.30595  0.45149  1.0000
  I   I186      1.0  0.87833  0.32713  0.78266  1.0000
  I   I187      1.0  0.85547  0.57873  0.17953  1.0000
  I   I188      1.0  0.85310  0.59263  0.49534  1.0000
  I   I189      1.0  0.86019  0.57790  0.83816  1.0000
  I   I190      1.0  0.89088  0.81438  0.14302  1.0000
  I   I191      1.0  0.87794  0.80896  0.47065  1.0000
  I   I192      1.0  0.88050  0.80733  0.82116  1.0000
  I   I193      1.0  0.24810  0.01670  0.25333  1.0000
  I   I194      1.0  0.22968  0.02478  0.56828  1.0000
  I   I195      1.0  0.25800  0.01989  0.90010  1.0000
  I   I196      1.0  0.23078  0.31924  0.23310  1.0000
  I   I197      1.0  0.22112  0.34402  0.52948  1.0000
  I   I198      1.0  0.22221  0.33347  0.88895  1.0000
  I   I199      1.0  0.24640  0.53920  0.23408  1.0000
  I   I200      1.0  0.23842  0.56343  0.53519  1.0000
  I   I201      1.0  0.24534  0.56501  0.90347  1.0000
  I   I202      1.0  0.19719  0.86056  0.20894  1.0000
  I   I203      1.0  0.20156  0.85432  0.55254  1.0000
  I   I204      1.0  0.19906  0.83961  0.86970  1.0000
  I   I205      1.0  0.47686  0.07970  0.21240  1.0000
  I   I206      1.0  0.46924  0.07342  0.54007  1.0000
  I   I207      1.0  0.48461  0.07003  0.87869  1.0000
  I   I208      1.0  0.50238  0.30966  0.25184  1.0000
  I   I209      1.0  0.48565  0.32201  0.57430  1.0000
  I   I210      1.0  0.50159  0.31521  0.87277  1.0000
  I   I211      1.0  0.45655  0.59328  0.17620  1.0000
  I   I212      1.0  0.46157  0.60289  0.51914  1.0000
  I   I213      1.0  0.45623  0.58201  0.85687  1.0000
  I   I214      1.0  0.51838  0.79492  0.18837  1.0000
  I   I215      1.0  0.50111  0.80792  0.52181  1.0000
  I   I216      1.0  0.50026  0.79022  0.85316  1.0000
  I   I217      1.0  0.75072  0.07138  0.17969  1.0000
  I   I218      1.0  0.75529  0.04926  0.51779  1.0000
  I   I219      1.0  0.75069  0.04930  0.85744  1.0000
  I   I220      1.0  0.69466  0.33375  0.18257  1.0000
  I   I221      1.0  0.70127  0.34916  0.50879  1.0000
  I   I222      1.0  0.69500  0.33524  0.84847  1.0000
  I   I223      1.0  0.72131  0.57240  0.15227  1.0000
  I   I224      1.0  0.72681  0.56224  0.51198  1.0000
  I   I225      1.0  0.72045  0.56683  0.82302  1.0000
  I   I226      1.0  0.74313  0.80456  0.23828  1.0000
  I   I227      1.0  0.74780  0.79641  0.56370  1.0000
  I   I228      1.0  0.73641  0.80045  0.89371  1.0000
  I   I229      1.0  0.96309  0.11760  0.20066  1.0000
  I   I230      1.0  0.96719  0.08801  0.56516  1.0000
  I   I231      1.0  0.95090  0.12724  0.87120  1.0000
  I   I232      1.0  0.98804  0.33960  0.19491  1.0000
  I   I233      1.0  0.98028  0.31978  0.52951  1.0000
  I   I234      1.0  0.97060  0.34042  0.84852  1.0000
  I   I235      1.0  0.96900  0.55950  0.24163  1.0000
  I   I236      1.0  0.97198  0.56305  0.54148  1.0000
  I   I237      1.0  0.96847  0.55125  0.88467  1.0000
  I   I238      1.0  0.99879  0.80246  0.18696  1.0000
  I   I239      1.0  0.97274  0.80823  0.55009  1.0000
  I   I240      1.0  0.99530  0.79734  0.85242  1.0000
  I   I241      1.0  0.15686  0.00410  0.32096  1.0000
  I   I242      1.0  0.16135  0.98837  0.64706  1.0000
  I   I243      1.0  0.19201  0.98341  0.99809  1.0000
  I   I244      1.0  0.16899  0.27589  0.31488  1.0000
  I   I245      1.0  0.18314  0.28117  0.62932  1.0000
  I   I246      1.0  0.16064  0.28193  0.96191  1.0000
  I   I247      1.0  0.17846  0.50716  0.31241  1.0000
  I   I248      1.0  0.20817  0.49548  0.64465  1.0000
  I   I249      1.0  0.19713  0.50126  0.97689  1.0000
  I   I250      1.0  0.16851  0.78230  0.29303  1.0000
  I   I251      1.0  0.17557  0.77369  0.62460  1.0000
  I   I252      1.0  0.15613  0.78806  0.98190  1.0000
  I   I253      1.0  0.43747  0.02130  0.29552  1.0000
  I   I254      1.0  0.42601  0.02920  0.65498  1.0000
  I   I255      1.0  0.43045  0.02839  0.97696  1.0000
  I   I256      1.0  0.45278  0.26736  0.34619  1.0000
  I   I257      1.0  0.43432  0.27064  0.66639  1.0000
  I   I258      1.0  0.44679  0.26518  0.97267  1.0000
  I   I259      1.0  0.38192  0.56312  0.27772  1.0000
  I   I260      1.0  0.40358  0.55337  0.61104  1.0000
  I   I261      1.0  0.39176  0.55864  0.98257  1.0000
  I   I262      1.0  0.45498  0.75085  0.27863  1.0000
  I   I263      1.0  0.44051  0.75487  0.61976  1.0000
  I   I264      1.0  0.44000  0.75534  0.94972  1.0000
  I   I265      1.0  0.70097  0.01672  0.28202  1.0000
  I   I266      1.0  0.71111  0.99512  0.60877  1.0000
  I   I267      1.0  0.70208  0.00134  0.95319  1.0000
  I   I268      1.0  0.62085  0.31210  0.27586  1.0000
  I   I269      1.0  0.64887  0.30548  0.60502  1.0000
  I   I270      1.0  0.63963  0.28939  0.91571  1.0000
  I   I271      1.0  0.66968  0.51389  0.24495  1.0000
  I   I272      1.0  0.66734  0.51055  0.57607  1.0000
  I   I273      1.0  0.66578  0.51260  0.91955  1.0000
  I   I274      1.0  0.67636  0.75748  0.31112  1.0000
  I   I275      1.0  0.67587  0.75489  0.62755  1.0000
  I   I276      1.0  0.66437  0.76649  0.98612  1.0000
  I   I277      1.0  0.94599  0.03696  0.27603  1.0000
  I   I278      1.0  0.90507  0.04511  0.63847  1.0000
  I   I279      1.0  0.90325  0.06763  0.95399  1.0000
  I   I280      1.0  0.94465  0.27208  0.25277  1.0000
  I   I281      1.0  0.94464  0.25527  0.61719  1.0000
  I   I282      1.0  0.93014  0.27591  0.92451  1.0000
  I   I283      1.0  0.90712  0.52335  0.34490  1.0000
  I   I284      1.0  0.91171  0.52637  0.64730  1.0000
  I   I285      1.0  0.90011  0.52670  0.99320  1.0000
  I   I286      1.0  0.94123  0.75129  0.28518  1.0000
  I   I287      1.0  0.91414  0.75873  0.62748  1.0000
  I   I288      1.0  0.93978  0.75858  0.97090  1.0000
  I   I289      1.0  0.05560  0.17475  0.14237  1.0000
  I   I290      1.0  0.04467  0.17006  0.47915  1.0000
  I   I291      1.0  0.04779  0.14463  0.82625  1.0000
  I   I292      1.0  0.01485  0.44042  0.15473  1.0000
  I   I293      1.0  0.00798  0.44009  0.48278  1.0000
  I   I294      1.0  0.01179  0.43487  0.81480  1.0000
  I   I295      1.0  0.03607  0.66202  0.14053  1.0000
  I   I296      1.0  0.03559  0.65679  0.49835  1.0000
  I   I297      1.0  0.04868  0.66959  0.82016  1.0000
  I   I298      1.0  0.99380  0.94207  0.13116  1.0000
  I   I299      1.0  0.99389  0.92669  0.44029  1.0000
  I   I300      1.0  0.98604  0.92317  0.78467  1.0000
  I   I301      1.0  0.27353  0.16532  0.12463  1.0000
  I   I302      1.0  0.26570  0.17840  0.46543  1.0000
  I   I303      1.0  0.27501  0.18757  0.80796  1.0000
  I   I304      1.0  0.29944  0.41269  0.15047  1.0000
  I   I305      1.0  0.27870  0.43011  0.48988  1.0000
  I   I306      1.0  0.28517  0.44040  0.84143  1.0000
  I   I307      1.0  0.25502  0.72868  0.13156  1.0000
  I   I308      1.0  0.25057  0.70653  0.45329  1.0000
  I   I309      1.0  0.25573  0.72589  0.75519  1.0000
  I   I310      1.0  0.30447  0.93075  0.12035  1.0000
  I   I311      1.0  0.31153  0.90349  0.43178  1.0000
  I   I312      1.0  0.29227  0.92360  0.76425  1.0000
  I   I313      1.0  0.54491  0.15629  0.11092  1.0000
  I   I314      1.0  0.54477  0.15805  0.46465  1.0000
  I   I315      1.0  0.53949  0.15416  0.78147  1.0000
  I   I316      1.0  0.48475  0.45971  0.10669  1.0000
  I   I317      1.0  0.48828  0.45919  0.44268  1.0000
  I   I318      1.0  0.48647  0.46352  0.75602  1.0000
  I   I319      1.0  0.51896  0.67055  0.07414  1.0000
  I   I320      1.0  0.52192  0.65577  0.41503  1.0000
  I   I321      1.0  0.51685  0.64654  0.75179  1.0000
  I   I322      1.0  0.54463  0.94450  0.15742  1.0000
  I   I323      1.0  0.52831  0.92427  0.46598  1.0000
  I   I324      1.0  0.52904  0.93204  0.82290  1.0000
  I   I325      1.0  0.75644  0.19403  0.14576  1.0000
  I   I326      1.0  0.75791  0.19742  0.45643  1.0000
  I   I327      1.0  0.75037  0.20941  0.79111  1.0000
  I   I328      1.0  0.76959  0.42662  0.10440  1.0000
  I   I329      1.0  0.77841  0.39804  0.44278  1.0000
  I   I330      1.0  0.77087  0.39725  0.75773  1.0000
  I   I331      1.0  0.75949  0.67584  0.17779  1.0000
  I   I332      1.0  0.75891  0.69418  0.48018  1.0000
  I   I333      1.0  0.76126  0.67658  0.79873  1.0000
  I   I334      1.0  0.79430  0.91218  0.13807  1.0000
  I   I335      1.0  0.78322  0.89769  0.43890  1.0000
  I   I336      1.0  0.77434  0.90339  0.81391  1.0000
  I   I337      1.0  0.13084  0.20205  0.03870  1.0000
  I   I338      1.0  0.10861  0.20577  0.38752  1.0000
  I   I339      1.0  0.09943  0.19654  0.73036  1.0000
  I   I340      1.0  0.06259  0.49300  0.05668  1.0000
  I   I341      1.0  0.06082  0.49283  0.39596  1.0000
  I   I342      1.0  0.05600  0.49053  0.70684  1.0000
  I   I343      1.0  0.08157  0.72013  0.05279  1.0000
  I   I344      1.0  0.08393  0.71498  0.39837  1.0000
  I   I345      1.0  0.09292  0.72261  0.72260  1.0000
  I   I346      1.0  0.04575  0.99273  0.04367  1.0000
  I   I347      1.0  0.05570  0.98897  0.38880  1.0000
  I   I348      1.0  0.03936  0.98329  0.70380  1.0000
  I   I349      1.0  0.31995  0.22827  0.06037  1.0000
  I   I350      1.0  0.31591  0.22704  0.37198  1.0000
  I   I351      1.0  0.32152  0.24054  0.70383  1.0000
  I   I352      1.0  0.36046  0.47082  0.07894  1.0000
  I   I353      1.0  0.33423  0.47347  0.39537  1.0000
  I   I354      1.0  0.33573  0.48591  0.74033  1.0000
  I   I355      1.0  0.31194  0.76743  0.02674  1.0000
  I   I356      1.0  0.28068  0.77824  0.36676  1.0000
  I   I357      1.0  0.32570  0.76121  0.67939  1.0000
  I   I358      1.0  0.36185  0.96099  0.01336  1.0000
  I   I359      1.0  0.36487  0.96506  0.36339  1.0000
  I   I360      1.0  0.35955  0.96036  0.68557  1.0000
  I   I361      1.0  0.59159  0.21556  0.02173  1.0000
  I   I362      1.0  0.59138  0.21616  0.37081  1.0000
  I   I363      1.0  0.59722  0.20299  0.69543  1.0000
  I   I364      1.0  0.53102  0.51208  0.99949  1.0000
  I   I365      1.0  0.53357  0.52300  0.35922  1.0000
  I   I366      1.0  0.54167  0.52037  0.69129  1.0000
  I   I367      1.0  0.57967  0.71963  0.99125  1.0000
  I   I368      1.0  0.57899  0.71131  0.33205  1.0000
  I   I369      1.0  0.55751  0.72406  0.67336  1.0000
  I   I370      1.0  0.60800  0.97549  0.06886  1.0000
  I   I371      1.0  0.58906  0.97081  0.38020  1.0000
  I   I372      1.0  0.58355  0.97367  0.73265  1.0000
  I   I373      1.0  0.79535  0.26696  0.05799  1.0000
  I   I374      1.0  0.81020  0.24936  0.37320  1.0000
  I   I375      1.0  0.78794  0.26421  0.68310  1.0000
  I   I376      1.0  0.80936  0.48433  0.99750  1.0000
  I   I377      1.0  0.80805  0.47115  0.35609  1.0000
  I   I378      1.0  0.79191  0.47305  0.66873  1.0000
  I   I379      1.0  0.80678  0.72718  0.06674  1.0000
  I   I380      1.0  0.81976  0.74410  0.40108  1.0000
  I   I381      1.0  0.82692  0.72508  0.73056  1.0000
  I   I382      1.0  0.84278  0.96582  0.03873  1.0000
  I   I383      1.0  0.82796  0.96463  0.37428  1.0000
  I   I384      1.0  0.81781  0.96186  0.72170  1.0000
