data_image0
_chemical_formula_structural       Ti96I384
_chemical_formula_sum              "Ti96 I384"
_cell_length_a       73.0301
_cell_length_b       73.0999
_cell_length_c       35.7038
_cell_angle_alpha    88.7757
_cell_angle_beta     88.7757
_cell_angle_gamma    62.1586

_space_group_name_H-M_alt    "P 1"
_space_group_IT_number       1

loop_
  _space_group_symop_operation_xyz
  'x, y, z'

loop_
  _atom_site_type_symbol
  _atom_site_label
  _atom_site_symmetry_multiplicity
  _atom_site_fract_x
  _atom_site_fract_y
  _atom_site_fract_z
  _atom_site_occupancy
  Ti  Ti1       1.0  0.61437  0.44890  0.77153  1.0000
  Ti  Ti2       1.0  0.30907  0.84248  0.24647  1.0000
  Ti  Ti3       1.0  0.35771  0.05959  0.94284  1.0000
  Ti  Ti4       1.0  0.09579  0.30262  0.05640  1.0000
  Ti  Ti5       1.0  0.56257  0.63906  0.37875  1.0000
  Ti  Ti6       1.0  0.42549  0.23513  0.31856  1.0000
  Ti  Ti7       1.0  0.56310  0.80174  0.08934  1.0000
  Ti  Ti8       1.0  0.22737  0.51201  0.84863  1.0000
  Ti  Ti9       1.0  0.38714  0.28513  0.92509  1.0000
  Ti  Ti10      1.0  0.66706  0.59355  0.98692  1.0000
  Ti  Ti11      1.0  0.20612  0.15347  0.96323  1.0000
  Ti  Ti12      1.0  0.86262  0.20101  0.97878  1.0000
  Ti  Ti13      1.0  0.75383  0.76253  0.51367  1.0000
  Ti  Ti14      1.0  0.09155  0.31013  0.94475  1.0000
  Ti  Ti15      1.0  0.76755  0.63086  0.56178  1.0000
  Ti  Ti16      1.0  0.28127  0.47184  0.17399  1.0000
  Ti  Ti17      1.0  0.05187  0.21032  0.10827  1.0000
  Ti  Ti18      1.0  0.23484  0.29627  0.91264  1.0000
  Ti  Ti19      1.0  0.05526  0.84756  0.32202  1.0000
  Ti  Ti20      1.0  0.29417  0.78624  0.48000  1.0000
  Ti  Ti21      1.0  0.17178  0.57366  0.83117  1.0000
  Ti  Ti22      1.0  0.06312  0.15085  0.35024  1.0000
  Ti  Ti23      1.0  0.15473  0.00819  0.31197  1.0000
  Ti  Ti24      1.0  0.80427  0.07628  0.12086  1.0000
  Ti  Ti25      1.0  0.56398  0.48831  0.30222  1.0000
  Ti  Ti26      1.0  0.54526  0.92445  0.71196  1.0000
  Ti  Ti27      1.0  0.74942  0.32976  0.22842  1.0000
  Ti  Ti28      1.0  0.30280  0.04112  0.28852  1.0000
  Ti  Ti29      1.0  0.28949  0.81325  0.05153  1.0000
  Ti  Ti30      1.0  0.29472  0.96207  0.41898  1.0000
  Ti  Ti31      1.0  0.42470  0.89139  0.60856  1.0000
  Ti  Ti32      1.0  0.38341  0.86563  0.90798  1.0000
  Ti  Ti33      1.0  0.34145  0.56683  0.05843  1.0000
  Ti  Ti34      1.0  0.74390  0.53586  0.21487  1.0000
  Ti  Ti35      1.0  0.10239  0.55019  0.51439  1.0000
  Ti  Ti36      1.0  0.79471  0.15052  0.17411  1.0000
  Ti  Ti37      1.0  0.05260  0.05160  0.71104  1.0000
  Ti  Ti38      1.0  0.61771  0.93999  0.22517  1.0000
  Ti  Ti39      1.0  0.69671  0.82797  0.92977  1.0000
  Ti  Ti40      1.0  0.63085  0.74945  0.60148  1.0000
  Ti  Ti41      1.0  0.64224  0.46809  0.97952  1.0000
  Ti  Ti42      1.0  0.92033  0.55158  0.92093  1.0000
  Ti  Ti43      1.0  0.87629  0.00824  0.89740  1.0000
  Ti  Ti44      1.0  0.67905  0.40755  0.00717  1.0000
  Ti  Ti45      1.0  0.15742  0.17509  0.52977  1.0000
  Ti  Ti46      1.0  0.33735  0.01199  0.94826  1.0000
  Ti  Ti47      1.0  0.23349  0.90382  0.97505  1.0000
  Ti  Ti48      1.0  0.06354  0.03873  0.07570  1.0000
  Ti  Ti49      1.0  0.76799  0.87955  0.46000  1.0000
  Ti  Ti50      1.0  0.94389  0.38364  0.23167  1.0000
  Ti  Ti51      1.0  0.27381  0.88830  0.21815  1.0000
  Ti  Ti52      1.0  0.81342  0.49844  0.65089  1.0000
  Ti  Ti53      1.0  0.81358  0.76725  0.05949  1.0000
  Ti  Ti54      1.0  0.66187  0.16319  0.38758  1.0000
  Ti  Ti55      1.0  0.59501  0.76808  0.09120  1.0000
  Ti  Ti56      1.0  0.11369  0.84695  0.71967  1.0000
  Ti  Ti57      1.0  0.41739  0.26517  0.99497  1.0000
  Ti  Ti58      1.0  0.36653  0.53949  0.59856  1.0000
  Ti  Ti59      1.0  0.54022  0.08171  0.62605  1.0000
  Ti  Ti60      1.0  0.90869  0.20249  0.05598  1.0000
  Ti  Ti61      1.0  0.74475  0.61387  0.48145  1.0000
  Ti  Ti62      1.0  0.70600  0.75999  0.46177  1.0000
  Ti  Ti63      1.0  0.14059  0.65307  0.07193  1.0000
  Ti  Ti64      1.0  0.19114  0.33339  0.96412  1.0000
  Ti  Ti65      1.0  0.00272  0.74493  0.38810  1.0000
  Ti  Ti66      1.0  0.57834  0.31944  0.10930  1.0000
  Ti  Ti67      1.0  0.86935  0.55128  0.40476  1.0000
  Ti  Ti68      1.0  0.99293  0.85796  0.33855  1.0000
  Ti  Ti69      1.0  0.57868  0.86138  0.52991  1.0000
  Ti  Ti70      1.0  0.88941  0.52202  0.49051  1.0000
  Ti  Ti71      1.0  0.16654  0.02337  0.42369  1.0000
  Ti  Ti72      1.0  0.20551  0.95644  0.94411  1.0000
  Ti  Ti73      1.0  0.73361  0.39596  0.27378  1.0000
  Ti  Ti74      1.0  0.56450  0.42190  0.28690  1.0000
  Ti  Ti75      1.0  0.43698  0.09578  0.01130  1.0000
  Ti  Ti76      1.0  0.27692  0.08965  0.23873  1.0000
  Ti  Ti77      1.0  0.02060  0.81779  0.70401  1.0000
  Ti  Ti78      1.0  0.25135  0.77118  0.07937  1.0000
  Ti  Ti79      1.0  0.75562  0.02298  0.02640  1.0000
  Ti  Ti80      1.0  0.08685  0.36273  0.22570  1.0000
  Ti  Ti81      1.0  0.35771  0.84467  0.84636  1.0000
  Ti  Ti82      1.0  0.87462  0.27696  0.28190  1.0000
  Ti  Ti83      1.0  0.09384  0.51902  0.42277  1.0000
  Ti  Ti84      1.0  0.77694  0.18870  0.10181  1.0000
  Ti  Ti85      1.0  0.05047  0.04639  0.78290  1.0000
  Ti  Ti86      1.0  0.63888  0.30131  0.13916  1.0000
  Ti  Ti87      1.0  0.14848  0.22725  0.50551  1.0000
  Ti  Ti88      1.0  0.84696  0.48690  0.89881  1.0000
  Ti  Ti89      1.0  0.42645  0.40633  0.23541  1.0000
  Ti  Ti90      1.0  0.98043  0.55643  0.93198  1.0000
  Ti  Ti91      1.0  0.20379  0.62384  0.28259  1.0000
  Ti  Ti92      1.0  0.47951  0.74884  0.32059  1.0000
  Ti  Ti93      1.0  0.93188  0.13968  0.18045  1.0000
  Ti  Ti94      1.0  0.09126  0.98679  0.11709  1.0000
  Ti  Ti95      1.0  0.21697  0.43067  0.94751  1.0000
  Ti  Ti96      1.0  0.96818  0.28195  0.59361  1.0000
  I   I1        1.0  0.20531  0.99001  0.97782  1.0000
  I   I2        1.0  0.29847  0.88803  0.16075  1.0000
  I   I3        1.0  0.76996  0.84568  0.44414  1.0000
  I   I4        1.0  0.83908  0.72969  0.04658  1.0000
  I   I5        1.0  0.40206  0.27569  0.31186  1.0000
  I   I6        1.0  0.69751  0.15465  0.35532  1.0000
  I   I7        1.0  0.23361  0.50625  0.92003  1.0000
  I   I8        1.0  0.14274  0.82311  0.67375  1.0000
  I   I9        1.0  0.40596  0.30409  0.96886  1.0000
  I   I10       1.0  0.69572  0.55791  0.96538  1.0000
  I   I11       1.0  0.18432  0.13777  0.99926  1.0000
  I   I12       1.0  0.55592  0.67432  0.41142  1.0000
  I   I13       1.0  0.77540  0.74552  0.45129  1.0000
  I   I14       1.0  0.12971  0.65022  0.00432  1.0000
  I   I15       1.0  0.80596  0.61468  0.56235  1.0000
  I   I16       1.0  0.65642  0.62902  0.93440  1.0000
  I   I17       1.0  0.53938  0.34250  0.13464  1.0000
  I   I18       1.0  0.25477  0.25753  0.90138  1.0000
  I   I19       1.0  0.28055  0.79913  0.54433  1.0000
  I   I20       1.0  0.19369  0.19432  0.96504  1.0000
  I   I21       1.0  0.26145  0.51268  0.83688  1.0000
  I   I22       1.0  0.13034  0.99328  0.31689  1.0000
  I   I23       1.0  0.14031  0.04134  0.36613  1.0000
  I   I24       1.0  0.84651  0.54801  0.45820  1.0000
  I   I25       1.0  0.53730  0.52572  0.29129  1.0000
  I   I26       1.0  0.40552  0.10702  0.96813  1.0000
  I   I27       1.0  0.78322  0.30411  0.19557  1.0000
  I   I28       1.0  0.32011  0.99817  0.26767  1.0000
  I   I29       1.0  0.27377  0.74591  0.02574  1.0000
  I   I30       1.0  0.30761  0.98589  0.45059  1.0000
  I   I31       1.0  0.06126  0.36435  0.17681  1.0000
  I   I32       1.0  0.33681  0.87251  0.79573  1.0000
  I   I33       1.0  0.72802  0.01203  0.00379  1.0000
  I   I34       1.0  0.06955  0.55203  0.46613  1.0000
  I   I35       1.0  0.81391  0.15620  0.09601  1.0000
  I   I36       1.0  0.72733  0.54619  0.14873  1.0000
  I   I37       1.0  0.07932  0.01262  0.74642  1.0000
  I   I38       1.0  0.72747  0.83042  0.95959  1.0000
  I   I39       1.0  0.02256  0.08626  0.75656  1.0000
  I   I40       1.0  0.66831  0.42951  0.93433  1.0000
  I   I41       1.0  0.96725  0.52641  0.91759  1.0000
  I   I42       1.0  0.65739  0.71036  0.60225  1.0000
  I   I43       1.0  0.34233  0.52692  0.56020  1.0000
  I   I44       1.0  0.67627  0.39689  0.07629  1.0000
  I   I45       1.0  0.15075  0.22766  0.43784  1.0000
  I   I46       1.0  0.24547  0.43232  0.98932  1.0000
  I   I47       1.0  0.21471  0.92177  0.90692  1.0000
  I   I48       1.0  0.07426  0.01314  0.00919  1.0000
  I   I49       1.0  0.75339  0.88813  0.52750  1.0000
  I   I50       1.0  0.26949  0.86952  0.27703  1.0000
  I   I51       1.0  0.32522  0.84186  0.31037  1.0000
  I   I52       1.0  0.10402  0.38556  0.20739  1.0000
  I   I53       1.0  0.81797  0.79678  0.09346  1.0000
  I   I54       1.0  0.63348  0.20213  0.37661  1.0000
  I   I55       1.0  0.60317  0.78990  0.03924  1.0000
  I   I56       1.0  0.21613  0.53855  0.79249  1.0000
  I   I57       1.0  0.18751  0.42867  0.89760  1.0000
  I   I58       1.0  0.63076  0.59878  0.97051  1.0000
  I   I59       1.0  0.52011  0.10292  0.57157  1.0000
  I   I60       1.0  0.85231  0.21460  0.90993  1.0000
  I   I61       1.0  0.71392  0.75272  0.38910  1.0000
  I   I62       1.0  0.72653  0.71934  0.49026  1.0000
  I   I63       1.0  0.12245  0.69111  0.07986  1.0000
  I   I64       1.0  0.27081  0.44163  0.18017  1.0000
  I   I65       1.0  0.00362  0.73602  0.31697  1.0000
  I   I66       1.0  0.56667  0.29019  0.12942  1.0000
  I   I67       1.0  0.09020  0.84580  0.34803  1.0000
  I   I68       1.0  0.32562  0.75118  0.48825  1.0000
  I   I69       1.0  0.60659  0.83492  0.57905  1.0000
  I   I70       1.0  0.87116  0.54499  0.54921  1.0000
  I   I71       1.0  0.20252  0.02216  0.40129  1.0000
  I   I72       1.0  0.16987  0.96667  0.91718  1.0000
  I   I73       1.0  0.71709  0.36598  0.28370  1.0000
  I   I74       1.0  0.50715  0.95409  0.70700  1.0000
  I   I75       1.0  0.57205  0.93866  0.69001  1.0000
  I   I76       1.0  0.04283  0.78907  0.74835  1.0000
  I   I77       1.0  0.98855  0.84605  0.75231  1.0000
  I   I78       1.0  0.62530  0.41071  0.75494  1.0000
  I   I79       1.0  0.34912  0.57580  0.12402  1.0000
  I   I80       1.0  0.41711  0.86776  0.65593  1.0000
  I   I81       1.0  0.38902  0.82331  0.80612  1.0000
  I   I82       1.0  0.83644  0.28177  0.32591  1.0000
  I   I83       1.0  0.13935  0.54577  0.53609  1.0000
  I   I84       1.0  0.76769  0.15238  0.12232  1.0000
  I   I85       1.0  0.05076  0.04799  0.64119  1.0000
  I   I86       1.0  0.56446  0.33425  0.04462  1.0000
  I   I87       1.0  0.67043  0.86060  0.89097  1.0000
  I   I88       1.0  0.64553  0.77240  0.56837  1.0000
  I   I89       1.0  0.67058  0.45895  0.03190  1.0000
  I   I90       1.0  0.99158  0.58237  0.96146  1.0000
  I   I91       1.0  0.16972  0.63584  0.32462  1.0000
  I   I92       1.0  0.51330  0.74829  0.34724  1.0000
  I   I93       1.0  0.71279  0.40599  0.03110  1.0000
  I   I94       1.0  0.10510  0.95050  0.08053  1.0000
  I   I95       1.0  0.30795  0.02297  0.00223  1.0000
  I   I96       1.0  0.99505  0.29283  0.57030  1.0000
  I   I97       1.0  0.35159  0.05414  0.02020  1.0000
  I   I98       1.0  0.64172  0.44900  0.72421  1.0000
  I   I99       1.0  0.23547  0.90034  0.19775  1.0000
  I   I100      1.0  0.08512  0.28222  0.91435  1.0000
  I   I101      1.0  0.88203  0.45130  0.90290  1.0000
  I   I102      1.0  0.58057  0.61029  0.42724  1.0000
  I   I103      1.0  0.55794  0.76476  0.07607  1.0000
  I   I104      1.0  0.58882  0.81394  0.12288  1.0000
  I   I105      1.0  0.36800  0.26052  0.90680  1.0000
  I   I106      1.0  0.88186  0.23236  0.99537  1.0000
  I   I107      1.0  0.67542  0.59253  0.05926  1.0000
  I   I108      1.0  0.86508  0.19621  0.05536  1.0000
  I   I109      1.0  0.78385  0.59039  0.45082  1.0000
  I   I110      1.0  0.66546  0.77442  0.46021  1.0000
  I   I111      1.0  0.18214  0.64147  0.05617  1.0000
  I   I112      1.0  0.24473  0.29581  0.97924  1.0000
  I   I113      1.0  0.00146  0.77876  0.41340  1.0000
  I   I114      1.0  0.06565  0.17429  0.13890  1.0000
  I   I115      1.0  0.84448  0.54794  0.34916  1.0000
  I   I116      1.0  0.92978  0.49849  0.49837  1.0000
  I   I117      1.0  0.01399  0.84929  0.39900  1.0000
  I   I118      1.0  0.07314  0.17894  0.33399  1.0000
  I   I119      1.0  0.90103  0.55224  0.45390  1.0000
  I   I120      1.0  0.19803  0.94400  0.00648  1.0000
  I   I121      1.0  0.69393  0.41984  0.24750  1.0000
  I   I122      1.0  0.56992  0.48000  0.37025  1.0000
  I   I123      1.0  0.46077  0.09641  0.95647  1.0000
  I   I124      1.0  0.29178  0.96003  0.34499  1.0000
  I   I125      1.0  0.32884  0.04530  0.32813  1.0000
  I   I126      1.0  0.29903  0.80626  0.98456  1.0000
  I   I127      1.0  0.31104  0.60494  0.04401  1.0000
  I   I128      1.0  0.07648  0.28536  0.09398  1.0000
  I   I129      1.0  0.34007  0.87145  0.92699  1.0000
  I   I130      1.0  0.82637  0.08236  0.06184  1.0000
  I   I131      1.0  0.84946  0.28615  0.23186  1.0000
  I   I132      1.0  0.09509  0.55155  0.58628  1.0000
  I   I133      1.0  0.68295  0.80970  0.97231  1.0000
  I   I134      1.0  0.58090  0.94848  0.22293  1.0000
  I   I135      1.0  0.59436  0.33634  0.15889  1.0000
  I   I136      1.0  0.99628  0.55275  0.86734  1.0000
  I   I137      1.0  0.78258  0.50474  0.70305  1.0000
  I   I138      1.0  0.42719  0.37151  0.26094  1.0000
  I   I139      1.0  0.22518  0.64222  0.30038  1.0000
  I   I140      1.0  0.47955  0.71718  0.29414  1.0000
  I   I141      1.0  0.90913  0.12259  0.19123  1.0000
  I   I142      1.0  0.05297  0.00023  0.09391  1.0000
  I   I143      1.0  0.32061  0.05523  0.94045  1.0000
  I   I144      1.0  0.98124  0.24869  0.55120  1.0000
  I   I145      1.0  0.60728  0.48226  0.80617  1.0000
  I   I146      1.0  0.34243  0.82489  0.20784  1.0000
  I   I147      1.0  0.37540  0.06422  0.88348  1.0000
  I   I148      1.0  0.84568  0.49288  0.68417  1.0000
  I   I149      1.0  0.58059  0.62818  0.31233  1.0000
  I   I150      1.0  0.45628  0.22247  0.37057  1.0000
  I   I151      1.0  0.63484  0.75963  0.11918  1.0000
  I   I152      1.0  0.16954  0.60347  0.77859  1.0000
  I   I153      1.0  0.44971  0.26159  0.03201  1.0000
  I   I154      1.0  0.88154  0.98609  0.84106  1.0000
  I   I155      1.0  0.21207  0.13875  0.89937  1.0000
  I   I156      1.0  0.89698  0.16910  0.95790  1.0000
  I   I157      1.0  0.75792  0.64640  0.62932  1.0000
  I   I158      1.0  0.11161  0.64957  0.11526  1.0000
  I   I159      1.0  0.71997  0.64917  0.42940  1.0000
  I   I160      1.0  0.15711  0.35011  0.00341  1.0000
  I   I161      1.0  0.01319  0.22372  0.12625  1.0000
  I   I162      1.0  0.26224  0.29867  0.85400  1.0000
  I   I163      1.0  0.01266  0.84253  0.27790  1.0000
  I   I164      1.0  0.96796  0.83704  0.34887  1.0000
  I   I165      1.0  0.21532  0.48983  0.81258  1.0000
  I   I166      1.0  0.08940  0.13961  0.40462  1.0000
  I   I167      1.0  0.16744  0.98945  0.38252  1.0000
  I   I168      1.0  0.78178  0.08067  0.18173  1.0000
  I   I169      1.0  0.58269  0.39300  0.23646  1.0000
  I   I170      1.0  0.56889  0.40691  0.35275  1.0000
  I   I171      1.0  0.76469  0.35820  0.23729  1.0000
  I   I172      1.0  0.27393  0.05298  0.34482  1.0000
  I   I173      1.0  0.25286  0.80837  0.04213  1.0000
  I   I174      1.0  0.31085  0.92372  0.44257  1.0000
  I   I175      1.0  0.43891  0.87656  0.54435  1.0000
  I   I176      1.0  0.38097  0.88318  0.84519  1.0000
  I   I177      1.0  0.78874  0.00656  0.06852  1.0000
  I   I178      1.0  0.88956  0.27371  0.35956  1.0000
  I   I179      1.0  0.05859  0.51557  0.41227  1.0000
  I   I180      1.0  0.78224  0.22107  0.08423  1.0000
  I   I181      1.0  0.06951  0.04284  0.84629  1.0000
  I   I182      1.0  0.61545  0.28709  0.10070  1.0000
  I   I183      1.0  0.15818  0.15830  0.46109  1.0000
  I   I184      1.0  0.82959  0.49312  0.83289  1.0000
  I   I185      1.0  0.46092  0.39973  0.19435  1.0000
  I   I186      1.0  0.87978  0.56860  0.94014  1.0000
  I   I187      1.0  0.44594  0.76975  0.36386  1.0000
  I   I188      1.0  0.69636  0.37278  0.96816  1.0000
  I   I189      1.0  0.12228  0.18277  0.55742  1.0000
  I   I190      1.0  0.31364  0.00258  0.90488  1.0000
  I   I191      1.0  0.97409  0.38664  0.27018  1.0000
  I   I192      1.0  0.11797  0.00239  0.11418  1.0000
  I   I193      1.0  0.32322  0.81529  0.08555  1.0000
  I   I194      1.0  0.92967  0.41994  0.20622  1.0000
  I   I195      1.0  0.34701  0.09534  0.98120  1.0000
  I   I196      1.0  0.09280  0.33402  0.09590  1.0000
  I   I197      1.0  0.40410  0.53275  0.59005  1.0000
  I   I198      1.0  0.39481  0.22364  0.33750  1.0000
  I   I199      1.0  0.60589  0.74471  0.03054  1.0000
  I   I200      1.0  0.13672  0.83858  0.77933  1.0000
  I   I201      1.0  0.35991  0.31935  0.89765  1.0000
  I   I202      1.0  0.51023  0.08138  0.67211  1.0000
  I   I203      1.0  0.58134  0.89422  0.54096  1.0000
  I   I204      1.0  0.93869  0.18840  0.01464  1.0000
  I   I205      1.0  0.71710  0.79238  0.47099  1.0000
  I   I206      1.0  0.07084  0.33977  0.90128  1.0000
  I   I207      1.0  0.76121  0.59668  0.56508  1.0000
  I   I208      1.0  0.32103  0.45208  0.20292  1.0000
  I   I209      1.0  0.04135  0.21767  0.03922  1.0000
  I   I210      1.0  0.72492  0.05823  0.04984  1.0000
  I   I211      1.0  0.85263  0.58883  0.37662  1.0000
  I   I212      1.0  0.30592  0.81285  0.45511  1.0000
  I   I213      1.0  0.53904  0.86723  0.54105  1.0000
  I   I214      1.0  0.03109  0.16544  0.38839  1.0000
  I   I215      1.0  0.18608  0.97132  0.29513  1.0000
  I   I216      1.0  0.77940  0.06980  0.07912  1.0000
  I   I217      1.0  0.59373  0.49051  0.26263  1.0000
  I   I218      1.0  0.46755  0.06013  0.03168  1.0000
  I   I219      1.0  0.73873  0.30934  0.27996  1.0000
  I   I220      1.0  0.00879  0.80581  0.64589  1.0000
  I   I221      1.0  0.28823  0.77535  0.10576  1.0000
  I   I222      1.0  0.31916  0.05692  0.22611  1.0000
  I   I223      1.0  0.40009  0.93136  0.60482  1.0000
  I   I224      1.0  0.42366  0.84980  0.88769  1.0000
  I   I225      1.0  0.37680  0.55749  0.01732  1.0000
  I   I226      1.0  0.88363  0.30951  0.27133  1.0000
  I   I227      1.0  0.08701  0.58953  0.50880  1.0000
  I   I228      1.0  0.76439  0.20240  0.17113  1.0000
  I   I229      1.0  0.08136  0.21998  0.09645  1.0000
  I   I230      1.0  0.62161  0.92360  0.29737  1.0000
  I   I231      1.0  0.71892  0.80455  0.86865  1.0000
  I   I232      1.0  0.06469  0.32524  0.00558  1.0000
  I   I233      1.0  0.61291  0.48697  0.92870  1.0000
  I   I234      1.0  0.92686  0.54731  0.84596  1.0000
  I   I235      1.0  0.85450  0.00144  0.94378  1.0000
  I   I236      1.0  0.97177  0.13530  0.15289  1.0000
  I   I237      1.0  0.19552  0.63103  0.20975  1.0000
  I   I238      1.0  0.19658  0.43140  0.01158  1.0000
  I   I239      1.0  0.97478  0.26894  0.66080  1.0000
  I   I240      1.0  0.07627  0.06467  0.03496  1.0000
  I   I241      1.0  0.58941  0.46213  0.71596  1.0000
  I   I242      1.0  0.30566  0.81005  0.27267  1.0000
  I   I243      1.0  0.37733  0.01494  0.93132  1.0000
  I   I244      1.0  0.85355  0.51951  0.90241  1.0000
  I   I245      1.0  0.80034  0.79011  0.99536  1.0000
  I   I246      1.0  0.44319  0.21806  0.25105  1.0000
  I   I247      1.0  0.54270  0.84238  0.06853  1.0000
  I   I248      1.0  0.17822  0.53789  0.86303  1.0000
  I   I249      1.0  0.37495  0.27337  0.00519  1.0000
  I   I250      1.0  0.57282  0.04725  0.64600  1.0000
  I   I251      1.0  0.23881  0.14899  0.99485  1.0000
  I   I252      1.0  0.82635  0.19936  0.97990  1.0000
  I   I253      1.0  0.76487  0.73863  0.57170  1.0000
  I   I254      1.0  0.12229  0.31520  0.97378  1.0000
  I   I255      1.0  0.76533  0.65009  0.49160  1.0000
  I   I256      1.0  0.03360  0.71622  0.41589  1.0000
  I   I257      1.0  0.02717  0.03594  0.71793  1.0000
  I   I258      1.0  0.21231  0.35082  0.99635  1.0000
  I   I259      1.0  0.90838  0.52471  0.38018  1.0000
  I   I260      1.0  0.03063  0.88198  0.35716  1.0000
  I   I261      1.0  0.16584  0.59287  0.89061  1.0000
  I   I262      1.0  0.06306  0.12633  0.30002  1.0000
  I   I263      1.0  0.14796  0.05384  0.46336  1.0000
  I   I264      1.0  0.81175  0.11171  0.14764  1.0000
  I   I265      1.0  0.53681  0.47124  0.28509  1.0000
  I   I266      1.0  0.56457  0.89421  0.66677  1.0000
  I   I267      1.0  0.74479  0.39702  0.34432  1.0000
  I   I268      1.0  0.26939  0.05480  0.24149  1.0000
  I   I269      1.0  0.25861  0.74327  0.13057  1.0000
  I   I270      1.0  0.28917  0.11286  0.19278  1.0000
  I   I271      1.0  0.45851  0.89063  0.62119  1.0000
  I   I272      1.0  0.38631  0.82552  0.92238  1.0000
  I   I273      1.0  0.32568  0.54312  0.08608  1.0000
  I   I274      1.0  0.77949  0.51195  0.18518  1.0000
  I   I275      1.0  0.12122  0.51248  0.47629  1.0000
  I   I276      1.0  0.74076  0.20851  0.07674  1.0000
  I   I277      1.0  0.90381  0.25176  0.23211  1.0000
  I   I278      1.0  0.62659  0.96836  0.22735  1.0000
  I   I279      1.0  0.17995  0.14354  0.56683  1.0000
  I   I280      1.0  0.82283  0.46410  0.61041  1.0000
  I   I281      1.0  0.63344  0.43675  0.01881  1.0000
  I   I282      1.0  0.93014  0.51692  0.95102  1.0000
  I   I283      1.0  0.91501  0.98503  0.91773  1.0000
  I   I284      1.0  0.91033  0.17442  0.21860  1.0000
  I   I285      1.0  0.11018  0.25407  0.52684  1.0000
  I   I286      1.0  0.23914  0.40643  0.89313  1.0000
  I   I287      1.0  0.21801  0.97066  0.88149  1.0000
  I   I288      1.0  0.02458  0.06561  0.07099  1.0000
  I   I289      1.0  0.74939  0.91078  0.41623  1.0000
  I   I290      1.0  0.95528  0.35920  0.17816  1.0000
  I   I291      1.0  0.28106  0.85035  0.18414  1.0000
  I   I292      1.0  0.80521  0.53442  0.61495  1.0000
  I   I293      1.0  0.78101  0.76861  0.09124  1.0000
  I   I294      1.0  0.68042  0.15953  0.45439  1.0000
  I   I295      1.0  0.59807  0.74861  0.16289  1.0000
  I   I296      1.0  0.10454  0.88711  0.70606  1.0000
  I   I297      1.0  0.42484  0.26092  0.91125  1.0000
  I   I298      1.0  0.35199  0.55084  0.66879  1.0000
  I   I299      1.0  0.27986  0.49705  0.12010  1.0000
  I   I300      1.0  0.95790  0.11089  0.22594  1.0000
  I   I301      1.0  0.71869  0.60438  0.44960  1.0000
  I   I302      1.0  0.74768  0.79809  0.53708  1.0000
  I   I303      1.0  0.60024  0.75747  0.55182  1.0000
  I   I304      1.0  0.20993  0.33852  0.90287  1.0000
  I   I305      1.0  0.25136  0.49719  0.21857  1.0000
  I   I306      1.0  0.65815  0.31410  0.09046  1.0000
  I   I307      1.0  0.05864  0.85870  0.25579  1.0000
  I   I308      1.0  0.26508  0.78218  0.44446  1.0000
  I   I309      1.0  0.13160  0.58500  0.82933  1.0000
  I   I310      1.0  0.85666  0.04675  0.88111  1.0000
  I   I311      1.0  0.16284  0.02093  0.24014  1.0000
  I   I312      1.0  0.26022  0.92086  0.97030  1.0000
  I   I313      1.0  0.74999  0.42037  0.25126  1.0000
  I   I314      1.0  0.58759  0.44102  0.28224  1.0000
  I   I315      1.0  0.44086  0.11996  0.05972  1.0000
  I   I316      1.0  0.27640  0.10582  0.30523  1.0000
  I   I317      1.0  0.23823  0.11715  0.23607  1.0000
  I   I318      1.0  0.21328  0.79399  0.07634  1.0000
  I   I319      1.0  0.77632  0.97922  0.01993  1.0000
  I   I320      1.0  0.12691  0.28331  0.10272  1.0000
  I   I321      1.0  0.38968  0.88182  0.96673  1.0000
  I   I322      1.0  0.73926  0.50598  0.24483  1.0000
  I   I323      1.0  0.11757  0.48175  0.38675  1.0000
  I   I324      1.0  0.81650  0.16295  0.21021  1.0000
  I   I325      1.0  0.03360  0.02497  0.81879  1.0000
  I   I326      1.0  0.64276  0.30742  0.21361  1.0000
  I   I327      1.0  0.18726  0.18370  0.49369  1.0000
  I   I328      1.0  0.60933  0.75824  0.66000  1.0000
  I   I329      1.0  0.42529  0.42272  0.30032  1.0000
  I   I330      1.0  0.00370  0.52802  0.98149  1.0000
  I   I331      1.0  0.15619  0.25800  0.52250  1.0000
  I   I332      1.0  0.35654  0.57756  0.57477  1.0000
  I   I333      1.0  0.65604  0.49132  0.94054  1.0000
  I   I334      1.0  0.06747  0.05446  0.14175  1.0000
  I   I335      1.0  0.36383  0.97304  0.96026  1.0000
  I   I336      1.0  0.93896  0.32045  0.58688  1.0000
  I   I337      1.0  0.80465  0.88235  0.46709  1.0000
  I   I338      1.0  0.92088  0.38492  0.28709  1.0000
  I   I339      1.0  0.28663  0.91271  0.24854  1.0000
  I   I340      1.0  0.06082  0.37409  0.28078  1.0000
  I   I341      1.0  0.52409  0.64841  0.38195  1.0000
  I   I342      1.0  0.65911  0.13692  0.34797  1.0000
  I   I343      1.0  0.53143  0.80948  0.13495  1.0000
  I   I344      1.0  0.07807  0.84682  0.72164  1.0000
  I   I345      1.0  0.42147  0.22847  0.97794  1.0000
  I   I346      1.0  0.88199  0.49140  0.48836  1.0000
  I   I347      1.0  0.54899  0.10564  0.66663  1.0000
  I   I348      1.0  0.91012  0.23215  0.10271  1.0000
  I   I349      1.0  0.72340  0.64673  0.53138  1.0000
  I   I350      1.0  0.70460  0.77582  0.53905  1.0000
  I   I351      1.0  0.11418  0.27235  0.99864  1.0000
  I   I352      1.0  0.19772  0.29358  0.95642  1.0000
  I   I353      1.0  0.96174  0.76306  0.38095  1.0000
  I   I354      1.0  0.67238  0.26451  0.14816  1.0000
  I   I355      1.0  0.06493  0.80728  0.31588  1.0000
  I   I356      1.0  0.96109  0.89296  0.35156  1.0000
  I   I357      1.0  0.55242  0.90606  0.77490  1.0000
  I   I358      1.0  0.82962  0.03704  0.13981  1.0000
  I   I359      1.0  0.16774  0.99761  0.48122  1.0000
  I   I360      1.0  0.26480  0.86961  0.95079  1.0000
  I   I361      1.0  0.72806  0.33812  0.16202  1.0000
  I   I362      1.0  0.52480  0.42724  0.28421  1.0000
  I   I363      1.0  0.59898  0.85702  0.47068  1.0000
  I   I364      1.0  0.25488  0.97197  0.41844  1.0000
  I   I365      1.0  0.04733  0.82413  0.66226  1.0000
  I   I366      1.0  0.26487  0.85216  0.07021  1.0000
  I   I367      1.0  0.76354  0.04300  0.97416  1.0000
  I   I368      1.0  0.11278  0.32503  0.21383  1.0000
  I   I369      1.0  0.33685  0.82443  0.84049  1.0000
  I   I370      1.0  0.74070  0.56676  0.26217  1.0000
  I   I371      1.0  0.09734  0.54260  0.37439  1.0000
  I   I372      1.0  0.77081  0.15336  0.22381  1.0000
  I   I373      1.0  0.07752  0.06552  0.73052  1.0000
  I   I374      1.0  0.63896  0.90182  0.19429  1.0000
  I   I375      1.0  0.15832  0.20810  0.58419  1.0000
  I   I376      1.0  0.82394  0.48239  0.94795  1.0000
  I   I377      1.0  0.38869  0.42579  0.21498  1.0000
  I   I378      1.0  0.93644  0.56833  0.97014  1.0000
  I   I379      1.0  0.22386  0.58496  0.29150  1.0000
  I   I380      1.0  0.48089  0.77200  0.26344  1.0000
  I   I381      1.0  0.91954  0.17059  0.10576  1.0000
  I   I382      1.0  0.08407  0.98066  0.18740  1.0000
  I   I383      1.0  0.19673  0.46803  0.91551  1.0000
  I   I384      1.0  0.20991  0.88649  0.97259  1.0000
