data_image0
_chemical_formula_structural       Ti96I384
_chemical_formula_sum              "Ti96 I384"
_cell_length_a       76.0886
_cell_length_b       76.0233
_cell_length_c       37.1871
_cell_angle_alpha    88.7757
_cell_angle_beta     88.7757
_cell_angle_gamma    62.1586

_space_group_name_H-M_alt    "P 1"
_space_group_IT_number       1

loop_
  _space_group_symop_operation_xyz
  'x, y, z'

loop_
  _atom_site_type_symbol
  _atom_site_label
  _atom_site_symmetry_multiplicity
  _atom_site_fract_x
  _atom_site_fract_y
  _atom_site_fract_z
  _atom_site_occupancy
  Ti  Ti1       1.0  0.73793  0.13043  0.72686  1.0000
  Ti  Ti2       1.0  0.45685  0.79019  0.72220  1.0000
  Ti  Ti3       1.0  0.14317  0.12424  0.46423  1.0000
  Ti  Ti4       1.0  0.19994  0.17920  0.89942  1.0000
  Ti  Ti5       1.0  0.35298  0.03119  0.73715  1.0000
  Ti  Ti6       1.0  0.46360  0.58612  0.07247  1.0000
  Ti  Ti7       1.0  0.82675  0.93068  0.10362  1.0000
  Ti  Ti8       1.0  0.32032  0.86325  0.33916  1.0000
  Ti  Ti9       1.0  0.14345  0.51406  0.66586  1.0000
  Ti  Ti10      1.0  0.47273  0.74516  0.35553  1.0000
  Ti  Ti11      1.0  0.26280  0.80589  0.04645  1.0000
  Ti  Ti12      1.0  0.70278  0.06778  0.00458  1.0000
  Ti  Ti13      1.0  0.80747  0.68591  0.70820  1.0000
  Ti  Ti14      1.0  0.16728  0.20740  0.80929  1.0000
  Ti  Ti15      1.0  0.87574  0.35109  0.02072  1.0000
  Ti  Ti16      1.0  0.23722  0.71982  0.48066  1.0000
  Ti  Ti17      1.0  0.19115  0.71845  0.57621  1.0000
  Ti  Ti18      1.0  0.60832  0.07629  0.74468  1.0000
  Ti  Ti19      1.0  0.82358  0.23384  0.92727  1.0000
  Ti  Ti20      1.0  0.06725  0.67054  0.80828  1.0000
  Ti  Ti21      1.0  0.35725  0.80516  0.36517  1.0000
  Ti  Ti22      1.0  0.60315  0.39075  0.83043  1.0000
  Ti  Ti23      1.0  0.19522  0.59687  0.64122  1.0000
  Ti  Ti24      1.0  0.69701  0.22836  0.61342  1.0000
  Ti  Ti25      1.0  0.71172  0.54218  0.04772  1.0000
  Ti  Ti26      1.0  0.06054  0.76101  0.69999  1.0000
  Ti  Ti27      1.0  0.61604  0.62492  0.02374  1.0000
  Ti  Ti28      1.0  0.57910  0.10465  0.89991  1.0000
  Ti  Ti29      1.0  0.06465  0.04776  0.97698  1.0000
  Ti  Ti30      1.0  0.13592  0.90452  0.26370  1.0000
  Ti  Ti31      1.0  0.74038  0.23821  0.13167  1.0000
  Ti  Ti32      1.0  0.45881  0.72789  0.10162  1.0000
  Ti  Ti33      1.0  0.60287  0.23207  0.88100  1.0000
  Ti  Ti34      1.0  0.82267  0.52594  0.22997  1.0000
  Ti  Ti35      1.0  0.49738  0.86009  0.24060  1.0000
  Ti  Ti36      1.0  0.21978  0.23031  0.44294  1.0000
  Ti  Ti37      1.0  0.07151  0.41559  0.79133  1.0000
  Ti  Ti38      1.0  0.35161  0.42911  0.63227  1.0000
  Ti  Ti39      1.0  0.96611  0.24048  0.64267  1.0000
  Ti  Ti40      1.0  0.50268  0.76349  0.41350  1.0000
  Ti  Ti41      1.0  0.77041  0.58667  0.19749  1.0000
  Ti  Ti42      1.0  0.76928  0.87007  0.45440  1.0000
  Ti  Ti43      1.0  0.03503  0.81574  0.38314  1.0000
  Ti  Ti44      1.0  0.75091  0.31820  0.27393  1.0000
  Ti  Ti45      1.0  0.64754  0.87582  0.26297  1.0000
  Ti  Ti46      1.0  0.85023  0.64838  0.02642  1.0000
  Ti  Ti47      1.0  0.99927  0.90602  0.96406  1.0000
  Ti  Ti48      1.0  0.98137  0.96639  0.51739  1.0000
  Ti  Ti49      1.0  0.04768  0.82180  0.46164  1.0000
  Ti  Ti50      1.0  0.10318  0.34184  0.10831  1.0000
  Ti  Ti51      1.0  0.48657  0.74030  0.65169  1.0000
  Ti  Ti52      1.0  0.45290  0.41095  0.03522  1.0000
  Ti  Ti53      1.0  0.42112  0.70500  0.86474  1.0000
  Ti  Ti54      1.0  0.40637  0.88439  0.86940  1.0000
  Ti  Ti55      1.0  0.46054  0.74942  0.00704  1.0000
  Ti  Ti56      1.0  0.76106  0.83943  0.80059  1.0000
  Ti  Ti57      1.0  0.17213  0.53384  0.68292  1.0000
  Ti  Ti58      1.0  0.38182  0.07827  0.89519  1.0000
  Ti  Ti59      1.0  0.26720  0.74511  0.42298  1.0000
  Ti  Ti60      1.0  0.89463  0.18175  0.00284  1.0000
  Ti  Ti61      1.0  0.68218  0.01196  0.52916  1.0000
  Ti  Ti62      1.0  0.86021  0.65256  0.70134  1.0000
  Ti  Ti63      1.0  0.08792  0.71805  0.85387  1.0000
  Ti  Ti64      1.0  0.57471  0.08652  0.70747  1.0000
  Ti  Ti65      1.0  0.63871  0.13560  0.56618  1.0000
  Ti  Ti66      1.0  0.36444  0.12985  0.11828  1.0000
  Ti  Ti67      1.0  0.33539  0.09000  0.34218  1.0000
  Ti  Ti68      1.0  0.62182  0.18816  0.06118  1.0000
  Ti  Ti69      1.0  0.05229  0.77548  0.62594  1.0000
  Ti  Ti70      1.0  0.26599  0.08654  0.48414  1.0000
  Ti  Ti71      1.0  0.22965  0.72283  0.24591  1.0000
  Ti  Ti72      1.0  0.04587  0.90250  0.95722  1.0000
  Ti  Ti73      1.0  0.60470  0.43771  0.22240  1.0000
  Ti  Ti74      1.0  0.71523  0.53478  0.14755  1.0000
  Ti  Ti75      1.0  0.23651  0.52432  0.14472  1.0000
  Ti  Ti76      1.0  0.42955  0.03596  0.56526  1.0000
  Ti  Ti77      1.0  0.85252  0.37121  0.92215  1.0000
  Ti  Ti78      1.0  0.01118  0.08013  0.96044  1.0000
  Ti  Ti79      1.0  0.41191  0.90599  0.37477  1.0000
  Ti  Ti80      1.0  0.63692  0.89154  0.95680  1.0000
  Ti  Ti81      1.0  0.06501  0.67995  0.33544  1.0000
  Ti  Ti82      1.0  0.71432  0.49431  0.78038  1.0000
  Ti  Ti83      1.0  0.12165  0.35430  0.35690  1.0000
  Ti  Ti84      1.0  0.23198  0.24946  0.54300  1.0000
  Ti  Ti85      1.0  0.09602  0.42093  0.74067  1.0000
  Ti  Ti86      1.0  0.87797  0.88873  0.12810  1.0000
  Ti  Ti87      1.0  0.68934  0.82493  0.27263  1.0000
  Ti  Ti88      1.0  0.18706  0.62478  0.00570  1.0000
  Ti  Ti89      1.0  0.12704  0.49387  0.21639  1.0000
  Ti  Ti90      1.0  0.03338  0.38773  0.10541  1.0000
  Ti  Ti91      1.0  0.85429  0.07041  0.40901  1.0000
  Ti  Ti92      1.0  0.36458  0.47248  0.21382  1.0000
  Ti  Ti93      1.0  0.46146  0.55733  0.65314  1.0000
  Ti  Ti94      1.0  0.99249  0.97379  0.59046  1.0000
  Ti  Ti95      1.0  0.23134  0.25735  0.13887  1.0000
  Ti  Ti96      1.0  0.60674  0.43924  0.80484  1.0000
  I   I1        1.0  0.01438  0.86988  0.94079  1.0000
  I   I2        1.0  0.48704  0.74404  0.72461  1.0000
  I   I3        1.0  0.03114  0.84199  0.51557  1.0000
  I   I4        1.0  0.41452  0.69987  0.79560  1.0000
  I   I5        1.0  0.46184  0.61579  0.10709  1.0000
  I   I6        1.0  0.36967  0.89589  0.85122  1.0000
  I   I7        1.0  0.36077  0.84128  0.35115  1.0000
  I   I8        1.0  0.78469  0.80255  0.78371  1.0000
  I   I9        1.0  0.15623  0.52311  0.73514  1.0000
  I   I10       1.0  0.45270  0.77983  0.38942  1.0000
  I   I11       1.0  0.23510  0.79392  0.04617  1.0000
  I   I12       1.0  0.32903  0.02996  0.69056  1.0000
  I   I13       1.0  0.85345  0.66934  0.76688  1.0000
  I   I14       1.0  0.11921  0.69452  0.80834  1.0000
  I   I15       1.0  0.83404  0.37765  0.98440  1.0000
  I   I16       1.0  0.48064  0.78009  0.47981  1.0000
  I   I17       1.0  0.38209  0.13999  0.16882  1.0000
  I   I18       1.0  0.57350  0.11635  0.74744  1.0000
  I   I19       1.0  0.08144  0.64312  0.85156  1.0000
  I   I20       1.0  0.23462  0.84018  0.02421  1.0000
  I   I21       1.0  0.28221  0.87794  0.35474  1.0000
  I   I22       1.0  0.16588  0.61366  0.59358  1.0000
  I   I23       1.0  0.25304  0.73605  0.22076  1.0000
  I   I24       1.0  0.23616  0.09841  0.44588  1.0000
  I   I25       1.0  0.73717  0.55824  0.01696  1.0000
  I   I26       1.0  0.26958  0.49005  0.13245  1.0000
  I   I27       1.0  0.60550  0.60006  0.98891  1.0000
  I   I28       1.0  0.61325  0.07014  0.89121  1.0000
  I   I29       1.0  0.00058  0.11616  0.98911  1.0000
  I   I30       1.0  0.13941  0.88934  0.20099  1.0000
  I   I31       1.0  0.63883  0.90155  0.89133  1.0000
  I   I32       1.0  0.03428  0.71171  0.31732  1.0000
  I   I33       1.0  0.41660  0.90218  0.45593  1.0000
  I   I34       1.0  0.50642  0.82502  0.26414  1.0000
  I   I35       1.0  0.25783  0.26402  0.54166  1.0000
  I   I36       1.0  0.83426  0.53464  0.16897  1.0000
  I   I37       1.0  0.10078  0.40086  0.67889  1.0000
  I   I38       1.0  0.96338  0.22103  0.58077  1.0000
  I   I39       1.0  0.13053  0.41781  0.75162  1.0000
  I   I40       1.0  0.75525  0.35191  0.27834  1.0000
  I   I41       1.0  0.07345  0.38092  0.12455  1.0000
  I   I42       1.0  0.51535  0.78940  0.43127  1.0000
  I   I43       1.0  0.37188  0.11582  0.88915  1.0000
  I   I44       1.0  0.76309  0.29510  0.33389  1.0000
  I   I45       1.0  0.61919  0.87150  0.29254  1.0000
  I   I46       1.0  0.23701  0.23953  0.20122  1.0000
  I   I47       1.0  0.95820  0.92412  0.97289  1.0000
  I   I48       1.0  0.98622  0.94032  0.57694  1.0000
  I   I49       1.0  0.00831  0.83998  0.43875  1.0000
  I   I50       1.0  0.44856  0.79447  0.79015  1.0000
  I   I51       1.0  0.42889  0.77481  0.71374  1.0000
  I   I52       1.0  0.63989  0.85651  0.96588  1.0000
  I   I53       1.0  0.44771  0.69389  0.91274  1.0000
  I   I54       1.0  0.39929  0.91985  0.84588  1.0000
  I   I55       1.0  0.83956  0.89417  0.13287  1.0000
  I   I56       1.0  0.33006  0.79301  0.37056  1.0000
  I   I57       1.0  0.22146  0.27196  0.06817  1.0000
  I   I58       1.0  0.49332  0.76371  0.33569  1.0000
  I   I59       1.0  0.23543  0.77665  0.39932  1.0000
  I   I60       1.0  0.93359  0.16322  0.01610  1.0000
  I   I61       1.0  0.77284  0.70230  0.68686  1.0000
  I   I62       1.0  0.87864  0.67136  0.68065  1.0000
  I   I63       1.0  0.06730  0.70869  0.79055  1.0000
  I   I64       1.0  0.24734  0.68310  0.47175  1.0000
  I   I65       1.0  0.63722  0.15480  0.50671  1.0000
  I   I66       1.0  0.37382  0.10859  0.05878  1.0000
  I   I67       1.0  0.82559  0.23535  0.99717  1.0000
  I   I68       1.0  0.07960  0.68435  0.87806  1.0000
  I   I69       1.0  0.01398  0.79910  0.63972  1.0000
  I   I70       1.0  0.27238  0.11707  0.48970  1.0000
  I   I71       1.0  0.21945  0.60811  0.61471  1.0000
  I   I72       1.0  0.99032  0.90499  0.89199  1.0000
  I   I73       1.0  0.64331  0.63355  0.00747  1.0000
  I   I74       1.0  0.03265  0.77270  0.75013  1.0000
  I   I75       1.0  0.09300  0.74475  0.74742  1.0000
  I   I76       1.0  0.88126  0.33160  0.89671  1.0000
  I   I77       1.0  0.85976  0.32673  0.03539  1.0000
  I   I78       1.0  0.72408  0.26006  0.07010  1.0000
  I   I79       1.0  0.58522  0.26166  0.92545  1.0000
  I   I80       1.0  0.70422  0.13342  0.70214  1.0000
  I   I81       1.0  0.46735  0.69106  0.11949  1.0000
  I   I82       1.0  0.74011  0.46106  0.74267  1.0000
  I   I83       1.0  0.11544  0.38053  0.30919  1.0000
  I   I84       1.0  0.20921  0.26761  0.48182  1.0000
  I   I85       1.0  0.05521  0.42512  0.86072  1.0000
  I   I86       1.0  0.34513  0.11773  0.15985  1.0000
  I   I87       1.0  0.98596  0.25758  0.67547  1.0000
  I   I88       1.0  0.49057  0.71097  0.32343  1.0000
  I   I89       1.0  0.80555  0.57811  0.21481  1.0000
  I   I90       1.0  0.01853  0.42438  0.13266  1.0000
  I   I91       1.0  0.88719  0.05808  0.43935  1.0000
  I   I92       1.0  0.36067  0.46904  0.28036  1.0000
  I   I93       1.0  0.77214  0.30082  0.22260  1.0000
  I   I94       1.0  0.96554  0.00640  0.56201  1.0000
  I   I95       1.0  0.87140  0.61690  0.06836  1.0000
  I   I96       1.0  0.61258  0.36540  0.77866  1.0000
  I   I97       1.0  0.16253  0.14724  0.47437  1.0000
  I   I98       1.0  0.73307  0.15913  0.76660  1.0000
  I   I99       1.0  0.50890  0.70306  0.66865  1.0000
  I   I100      1.0  0.21985  0.17862  0.96299  1.0000
  I   I101      1.0  0.18291  0.64090  0.07043  1.0000
  I   I102      1.0  0.34283  0.06775  0.72988  1.0000
  I   I103      1.0  0.80002  0.93367  0.05811  1.0000
  I   I104      1.0  0.44021  0.77064  0.06751  1.0000
  I   I105      1.0  0.17400  0.52112  0.61447  1.0000
  I   I106      1.0  0.69731  0.08019  0.94322  1.0000
  I   I107      1.0  0.48832  0.72514  0.42362  1.0000
  I   I108      1.0  0.70942  0.08868  0.04937  1.0000
  I   I109      1.0  0.87981  0.36035  0.08454  1.0000
  I   I110      1.0  0.79289  0.69397  0.77253  1.0000
  I   I111      1.0  0.11335  0.70459  0.90463  1.0000
  I   I112      1.0  0.60729  0.08984  0.66611  1.0000
  I   I113      1.0  0.61699  0.15599  0.62710  1.0000
  I   I114      1.0  0.20214  0.68435  0.61144  1.0000
  I   I115      1.0  0.30796  0.07826  0.33583  1.0000
  I   I116      1.0  0.33692  0.11254  0.29281  1.0000
  I   I117      1.0  0.60364  0.22482  0.07047  1.0000
  I   I118      1.0  0.60427  0.42652  0.88055  1.0000
  I   I119      1.0  0.34422  0.10034  0.39999  1.0000
  I   I120      1.0  0.04157  0.89788  0.88905  1.0000
  I   I121      1.0  0.58839  0.42755  0.27658  1.0000
  I   I122      1.0  0.71931  0.51127  0.01314  1.0000
  I   I123      1.0  0.24267  0.55294  0.12210  1.0000
  I   I124      1.0  0.13942  0.93933  0.27667  1.0000
  I   I125      1.0  0.42324  0.01991  0.51013  1.0000
  I   I126      1.0  0.00284  0.06499  0.02141  1.0000
  I   I127      1.0  0.61700  0.24542  0.82411  1.0000
  I   I128      1.0  0.17853  0.21866  0.90320  1.0000
  I   I129      1.0  0.05041  0.67076  0.39402  1.0000
  I   I130      1.0  0.23608  0.22257  0.58590  1.0000
  I   I131      1.0  0.67692  0.52765  0.78805  1.0000
  I   I132      1.0  0.49779  0.85986  0.16875  1.0000
  I   I133      1.0  0.96420  0.21432  0.68358  1.0000
  I   I134      1.0  0.34396  0.46471  0.61244  1.0000
  I   I135      1.0  0.33692  0.16147  0.08769  1.0000
  I   I136      1.0  0.80468  0.87134  0.44583  1.0000
  I   I137      1.0  0.41154  0.42518  0.04014  1.0000
  I   I138      1.0  0.14484  0.51555  0.19725  1.0000
  I   I139      1.0  0.83210  0.08799  0.46770  1.0000
  I   I140      1.0  0.39707  0.44111  0.20181  1.0000
  I   I141      1.0  0.48613  0.52245  0.60047  1.0000
  I   I142      1.0  0.02573  0.96001  0.62713  1.0000
  I   I143      1.0  0.13142  0.15245  0.41167  1.0000
  I   I144      1.0  0.61242  0.36536  0.87744  1.0000
  I   I145      1.0  0.74673  0.09783  0.77176  1.0000
  I   I146      1.0  0.47887  0.80891  0.71877  1.0000
  I   I147      1.0  0.10910  0.12570  0.44779  1.0000
  I   I148      1.0  0.47235  0.37217  0.03374  1.0000
  I   I149      1.0  0.38979  0.01976  0.71420  1.0000
  I   I150      1.0  0.43933  0.59280  0.01526  1.0000
  I   I151      1.0  0.48050  0.72981  0.94873  1.0000
  I   I152      1.0  0.32082  0.89575  0.30287  1.0000
  I   I153      1.0  0.17511  0.47658  0.66435  1.0000
  I   I154      1.0  0.06314  0.78003  0.36314  1.0000
  I   I155      1.0  0.29787  0.77291  0.04547  1.0000
  I   I156      1.0  0.89618  0.18204  0.93289  1.0000
  I   I157      1.0  0.85215  0.40164  0.89137  1.0000
  I   I158      1.0  0.07701  0.75536  0.85951  1.0000
  I   I159      1.0  0.70425  0.02674  0.54900  1.0000
  I   I160      1.0  0.59687  0.04468  0.68939  1.0000
  I   I161      1.0  0.22701  0.71409  0.56086  1.0000
  I   I162      1.0  0.63745  0.08418  0.74824  1.0000
  I   I163      1.0  0.83323  0.25954  0.89745  1.0000
  I   I164      1.0  0.65815  0.18279  0.07324  1.0000
  I   I165      1.0  0.32157  0.84264  0.28542  1.0000
  I   I166      1.0  0.58665  0.47795  0.82129  1.0000
  I   I167      1.0  0.21487  0.55804  0.62349  1.0000
  I   I168      1.0  0.71068  0.19809  0.57439  1.0000
  I   I169      1.0  0.68817  0.55726  0.19593  1.0000
  I   I170      1.0  0.68937  0.52450  0.10981  1.0000
  I   I171      1.0  0.58673  0.66204  0.03445  1.0000
  I   I172      1.0  0.44468  0.00985  0.61450  1.0000
  I   I173      1.0  0.98995  0.07587  0.90979  1.0000
  I   I174      1.0  0.10004  0.91484  0.27938  1.0000
  I   I175      1.0  0.78236  0.22490  0.12845  1.0000
  I   I176      1.0  0.44815  0.71764  0.01395  1.0000
  I   I177      1.0  0.44509  0.87766  0.39613  1.0000
  I   I178      1.0  0.71076  0.51726  0.71685  1.0000
  I   I179      1.0  0.09034  0.35068  0.38445  1.0000
  I   I180      1.0  0.25154  0.21707  0.49631  1.0000
  I   I181      1.0  0.08575  0.44897  0.79688  1.0000
  I   I182      1.0  0.85604  0.93048  0.15421  1.0000
  I   I183      1.0  0.71729  0.82849  0.30227  1.0000
  I   I184      1.0  0.15981  0.65729  0.97119  1.0000
  I   I185      1.0  0.09344  0.50640  0.18102  1.0000
  I   I186      1.0  0.75653  0.87755  0.38710  1.0000
  I   I187      1.0  0.33732  0.46422  0.18656  1.0000
  I   I188      1.0  0.71842  0.31729  0.26214  1.0000
  I   I189      1.0  0.68522  0.85371  0.22672  1.0000
  I   I190      1.0  0.85601  0.67925  0.01869  1.0000
  I   I191      1.0  0.12687  0.31670  0.06371  1.0000
  I   I192      1.0  0.13726  0.10841  0.52395  1.0000
  I   I193      1.0  0.06759  0.02980  0.04510  1.0000
  I   I194      1.0  0.06534  0.34326  0.08204  1.0000
  I   I195      1.0  0.17643  0.09438  0.43572  1.0000
  I   I196      1.0  0.20956  0.18306  0.82692  1.0000
  I   I197      1.0  0.34747  0.08548  0.86337  1.0000
  I   I198      1.0  0.49965  0.56720  0.03509  1.0000
  I   I199      1.0  0.42237  0.74342  0.11884  1.0000
  I   I200      1.0  0.75289  0.86695  0.75117  1.0000
  I   I201      1.0  0.11962  0.50306  0.68909  1.0000
  I   I202      1.0  0.29488  0.75769  0.42963  1.0000
  I   I203      1.0  0.05875  0.72834  0.69943  1.0000
  I   I204      1.0  0.67777  0.05314  0.01534  1.0000
  I   I205      1.0  0.82995  0.64239  0.72017  1.0000
  I   I206      1.0  0.13981  0.24385  0.82999  1.0000
  I   I207      1.0  0.82199  0.36819  0.89100  1.0000
  I   I208      1.0  0.23852  0.72405  0.40526  1.0000
  I   I209      1.0  0.16641  0.74955  0.61631  1.0000
  I   I210      1.0  0.41238  0.89476  0.30523  1.0000
  I   I211      1.0  0.29713  0.06344  0.43926  1.0000
  I   I212      1.0  0.03051  0.67221  0.79864  1.0000
  I   I213      1.0  0.07522  0.78566  0.67496  1.0000
  I   I214      1.0  0.57061  0.44039  0.77933  1.0000
  I   I215      1.0  0.18625  0.61821  0.69711  1.0000
  I   I216      1.0  0.44969  0.58434  0.60319  1.0000
  I   I217      1.0  0.67815  0.56661  0.02026  1.0000
  I   I218      1.0  0.21687  0.53592  0.21075  1.0000
  I   I219      1.0  0.64136  0.42765  0.23672  1.0000
  I   I220      1.0  0.90808  0.32010  0.99947  1.0000
  I   I221      1.0  0.08249  0.06669  0.02073  1.0000
  I   I222      1.0  0.45312  0.05073  0.55444  1.0000
  I   I223      1.0  0.72198  0.26847  0.17305  1.0000
  I   I224      1.0  0.48036  0.72824  0.15028  1.0000
  I   I225      1.0  0.63373  0.20625  0.91720  1.0000
  I   I226      1.0  0.74078  0.50455  0.81026  1.0000
  I   I227      1.0  0.52466  0.86897  0.26620  1.0000
  I   I228      1.0  0.18366  0.25388  0.41522  1.0000
  I   I229      1.0  0.16038  0.71709  0.54267  1.0000
  I   I230      1.0  0.32589  0.45434  0.68875  1.0000
  I   I231      1.0  0.93346  0.27151  0.65471  1.0000
  I   I232      1.0  0.17869  0.22776  0.76513  1.0000
  I   I233      1.0  0.76875  0.61244  0.14396  1.0000
  I   I234      1.0  0.00398  0.39293  0.06808  1.0000
  I   I235      1.0  0.06786  0.81920  0.38836  1.0000
  I   I236      1.0  0.47151  0.55900  0.71600  1.0000
  I   I237      1.0  0.84570  0.05057  0.35980  1.0000
  I   I238      1.0  0.25047  0.27961  0.14211  1.0000
  I   I239      1.0  0.61627  0.45083  0.74626  1.0000
  I   I240      1.0  0.96948  0.99289  0.46133  1.0000
  I   I241      1.0  0.74707  0.13274  0.66339  1.0000
  I   I242      1.0  0.46070  0.78559  0.64715  1.0000
  I   I243      1.0  0.86404  0.62180  0.96886  1.0000
  I   I244      1.0  0.17524  0.60143  0.97949  1.0000
  I   I245      1.0  0.43821  0.72522  0.83361  1.0000
  I   I246      1.0  0.45571  0.56795  0.12577  1.0000
  I   I247      1.0  0.89724  0.89823  0.07616  1.0000
  I   I248      1.0  0.37581  0.78616  0.30801  1.0000
  I   I249      1.0  0.12542  0.55429  0.67443  1.0000
  I   I250      1.0  0.28017  0.71417  0.47137  1.0000
  I   I251      1.0  0.29148  0.81652  0.05792  1.0000
  I   I252      1.0  0.88905  0.21650  0.02436  1.0000
  I   I253      1.0  0.81405  0.71743  0.71285  1.0000
  I   I254      1.0  0.15288  0.19186  0.77131  1.0000
  I   I255      1.0  0.69669  0.98013  0.57588  1.0000
  I   I256      1.0  0.67484  0.11308  0.57349  1.0000
  I   I257      1.0  0.04604  0.40356  0.79084  1.0000
  I   I258      1.0  0.62925  0.03752  0.77321  1.0000
  I   I259      1.0  0.36461  0.05536  0.32892  1.0000
  I   I260      1.0  0.62699  0.16844  0.00510  1.0000
  I   I261      1.0  0.38582  0.78521  0.41575  1.0000
  I   I262      1.0  0.56391  0.40139  0.83553  1.0000
  I   I263      1.0  0.25568  0.69032  0.29218  1.0000
  I   I264      1.0  0.21354  0.19740  0.46150  1.0000
  I   I265      1.0  0.70348  0.56809  0.11187  1.0000
  I   I266      1.0  0.02890  0.76309  0.57983  1.0000
  I   I267      1.0  0.59259  0.47407  0.19648  1.0000
  I   I268      1.0  0.56616  0.13254  0.84765  1.0000
  I   I269      1.0  0.09871  0.02469  0.94748  1.0000
  I   I270      1.0  0.54536  0.11096  0.92874  1.0000
  I   I271      1.0  0.74454  0.21067  0.17387  1.0000
  I   I272      1.0  0.07132  0.65457  0.27733  1.0000
  I   I273      1.0  0.56479  0.24031  0.86616  1.0000
  I   I274      1.0  0.73070  0.60762  0.22974  1.0000
  I   I275      1.0  0.46455  0.88275  0.27309  1.0000
  I   I276      1.0  0.20370  0.28833  0.56477  1.0000
  I   I277      1.0  0.72296  0.46719  0.82612  1.0000
  I   I278      1.0  0.37218  0.39566  0.66031  1.0000
  I   I279      1.0  0.66197  0.81007  0.27947  1.0000
  I   I280      1.0  0.45581  0.42569  0.97342  1.0000
  I   I281      1.0  0.77684  0.55264  0.17353  1.0000
  I   I282      1.0  0.75744  0.90214  0.49072  1.0000
  I   I283      1.0  0.01175  0.79628  0.36966  1.0000
  I   I284      1.0  0.68404  0.25970  0.57516  1.0000
  I   I285      1.0  0.71343  0.78715  0.24950  1.0000
  I   I286      1.0  0.19112  0.27265  0.15723  1.0000
  I   I287      1.0  0.00839  0.93810  0.94261  1.0000
  I   I288      1.0  0.98807  0.93837  0.47522  1.0000
  I   I289      1.0  0.01793  0.84329  0.32561  1.0000
  I   I290      1.0  0.10976  0.32122  0.17179  1.0000
  I   I291      1.0  0.51366  0.75299  0.65707  1.0000
  I   I292      1.0  0.47713  0.41897  0.06367  1.0000
  I   I293      1.0  0.38530  0.73458  0.87765  1.0000
  I   I294      1.0  0.44027  0.86085  0.84258  1.0000
  I   I295      1.0  0.84720  0.94254  0.05341  1.0000
  I   I296      1.0  0.72830  0.83979  0.79001  1.0000
  I   I297      1.0  0.21084  0.51065  0.69945  1.0000
  I   I298      1.0  0.38239  0.06304  0.95672  1.0000
  I   I299      1.0  0.19746  0.73588  0.49385  1.0000
  I   I300      1.0  0.42623  0.56025  0.65725  1.0000
  I   I301      1.0  0.68780  0.00341  0.46175  1.0000
  I   I302      1.0  0.83168  0.67583  0.65138  1.0000
  I   I303      1.0  0.44208  0.75464  0.31630  1.0000
  I   I304      1.0  0.57212  0.07060  0.77619  1.0000
  I   I305      1.0  0.23497  0.75500  0.49302  1.0000
  I   I306      1.0  0.80104  0.95021  0.15457  1.0000
  I   I307      1.0  0.83732  0.19449  0.90508  1.0000
  I   I308      1.0  0.08405  0.64698  0.74838  1.0000
  I   I309      1.0  0.33384  0.83658  0.39970  1.0000
  I   I310      1.0  0.05179  0.78307  0.46493  1.0000
  I   I311      1.0  0.20811  0.75380  0.28921  1.0000
  I   I312      1.0  0.06540  0.92121  0.95199  1.0000
  I   I313      1.0  0.60590  0.42304  0.16113  1.0000
  I   I314      1.0  0.74398  0.52334  0.09578  1.0000
  I   I315      1.0  0.20625  0.52801  0.11384  1.0000
  I   I316      1.0  0.39332  0.06723  0.59257  1.0000
  I   I317      1.0  0.59552  0.12168  0.93972  1.0000
  I   I318      1.0  0.04227  0.08064  0.91888  1.0000
  I   I319      1.0  0.37488  0.91749  0.36412  1.0000
  I   I320      1.0  0.15976  0.19113  0.87631  1.0000
  I   I321      1.0  0.44618  0.78524  0.97056  1.0000
  I   I322      1.0  0.82199  0.49401  0.20982  1.0000
  I   I323      1.0  0.14554  0.35818  0.40232  1.0000
  I   I324      1.0  0.24205  0.23006  0.39316  1.0000
  I   I325      1.0  0.10607  0.38518  0.81201  1.0000
  I   I326      1.0  0.88127  0.85584  0.10080  1.0000
  I   I327      1.0  0.64903  0.91099  0.27092  1.0000
  I   I328      1.0  0.53390  0.72890  0.41824  1.0000
  I   I329      1.0  0.10474  0.52150  0.26615  1.0000
  I   I330      1.0  0.03474  0.36869  0.16877  1.0000
  I   I331      1.0  0.66945  0.85732  0.32718  1.0000
  I   I332      1.0  0.42031  0.06378  0.87336  1.0000
  I   I333      1.0  0.82557  0.53278  0.29930  1.0000
  I   I334      1.0  0.97376  0.98230  0.65195  1.0000
  I   I335      1.0  0.80875  0.66068  0.02515  1.0000
  I   I336      1.0  0.63116  0.40119  0.79609  1.0000
  I   I337      1.0  0.08191  0.80221  0.49441  1.0000
  I   I338      1.0  0.13041  0.35284  0.11525  1.0000
  I   I339      1.0  0.49700  0.73521  0.58573  1.0000
  I   I340      1.0  0.67019  0.88160  0.99000  1.0000
  I   I341      1.0  0.34882  0.02208  0.80032  1.0000
  I   I342      1.0  0.40405  0.87355  0.93280  1.0000
  I   I343      1.0  0.49055  0.70681  0.04275  1.0000
  I   I344      1.0  0.75777  0.86282  0.85132  1.0000
  I   I345      1.0  0.16597  0.57079  0.66889  1.0000
  I   I346      1.0  0.26253  0.08561  0.55166  1.0000
  I   I347      1.0  0.28131  0.72567  0.36291  1.0000
  I   I348      1.0  0.86419  0.17719  0.02134  1.0000
  I   I349      1.0  0.64270  0.02418  0.52908  1.0000
  I   I350      1.0  0.88844  0.61824  0.69340  1.0000
  I   I351      1.0  0.20214  0.14272  0.89080  1.0000
  I   I352      1.0  0.54610  0.09130  0.67155  1.0000
  I   I353      1.0  0.62964  0.10625  0.57105  1.0000
  I   I354      1.0  0.91158  0.86143  0.16538  1.0000
  I   I355      1.0  0.78701  0.24159  0.92740  1.0000
  I   I356      1.0  0.61436  0.16877  0.11217  1.0000
  I   I357      1.0  0.08328  0.74076  0.63116  1.0000
  I   I358      1.0  0.66212  0.23445  0.63612  1.0000
  I   I359      1.0  0.20599  0.72230  0.19306  1.0000
  I   I360      1.0  0.07039  0.86641  0.99442  1.0000
  I   I361      1.0  0.63059  0.60547  0.08069  1.0000
  I   I362      1.0  0.74561  0.51598  0.19700  1.0000
  I   I363      1.0  0.06004  0.78884  0.56616  1.0000
  I   I364      1.0  0.14745  0.87933  0.31818  1.0000
  I   I365      1.0  0.88107  0.37461  0.96820  1.0000
  I   I366      1.0  0.04239  0.03545  0.94779  1.0000
  I   I367      1.0  0.41317  0.93856  0.37572  1.0000
  I   I368      1.0  0.60500  0.91800  0.98905  1.0000
  I   I369      1.0  0.09769  0.68345  0.29943  1.0000
  I   I370      1.0  0.78499  0.53669  0.26784  1.0000
  I   I371      1.0  0.13818  0.32088  0.32631  1.0000
  I   I372      1.0  0.71178  0.20545  0.67600  1.0000
  I   I373      1.0  0.05125  0.44746  0.73844  1.0000
  I   I374      1.0  0.32859  0.42468  0.58386  1.0000
  I   I375      1.0  0.63221  0.88704  0.20078  1.0000
  I   I376      1.0  0.21548  0.62071  0.95929  1.0000
  I   I377      1.0  0.14376  0.45626  0.19733  1.0000
  I   I378      1.0  0.77037  0.83190  0.46806  1.0000
  I   I379      1.0  0.84293  0.10329  0.37397  1.0000
  I   I380      1.0  0.36387  0.50213  0.17947  1.0000
  I   I381      1.0  0.73018  0.03220  0.99707  1.0000
  I   I382      1.0  0.01753  0.96647  0.52178  1.0000
  I   I383      1.0  0.26428  0.23079  0.10372  1.0000
  I   I384      1.0  0.02250  0.90100  0.01877  1.0000
