data_image0
_chemical_formula_structural       Ti96I384
_chemical_formula_sum              "Ti96 I384"
_cell_length_a       77.9861
_cell_length_b       78.0455
_cell_length_c       38.1715
_cell_angle_alpha    88.7757
_cell_angle_beta     88.7757
_cell_angle_gamma    62.1586

_space_group_name_H-M_alt    "P 1"
_space_group_IT_number       1

loop_
  _space_group_symop_operation_xyz
  'x, y, z'

loop_
  _atom_site_type_symbol
  _atom_site_label
  _atom_site_symmetry_multiplicity
  _atom_site_fract_x
  _atom_site_fract_y
  _atom_site_fract_z
  _atom_site_occupancy
  Ti  Ti1       1.0  0.66811  0.76842  0.96198  1.0000
  Ti  Ti2       1.0  0.54263  0.84205  0.54766  1.0000
  Ti  Ti3       1.0  0.09518  0.11413  0.50355  1.0000
  Ti  Ti4       1.0  0.29201  0.02678  0.84777  1.0000
  Ti  Ti5       1.0  0.67405  0.07292  0.48424  1.0000
  Ti  Ti6       1.0  0.45071  0.80115  0.23729  1.0000
  Ti  Ti7       1.0  0.65839  0.97940  0.46177  1.0000
  Ti  Ti8       1.0  0.80540  0.28673  0.23568  1.0000
  Ti  Ti9       1.0  0.15363  0.12329  0.78273  1.0000
  Ti  Ti10      1.0  0.82639  0.49828  0.38376  1.0000
  Ti  Ti11      1.0  0.97420  0.92110  0.59742  1.0000
  Ti  Ti12      1.0  0.22937  0.96245  0.10981  1.0000
  Ti  Ti13      1.0  0.67259  0.70795  0.77304  1.0000
  Ti  Ti14      1.0  0.29916  0.97982  0.92788  1.0000
  Ti  Ti15      1.0  0.92199  0.15326  0.61438  1.0000
  Ti  Ti16      1.0  0.09409  0.16737  0.15265  1.0000
  Ti  Ti17      1.0  0.16804  0.21276  0.15513  1.0000
  Ti  Ti18      1.0  0.67537  0.29968  0.16245  1.0000
  Ti  Ti19      1.0  0.41222  0.03164  0.42846  1.0000
  Ti  Ti20      1.0  0.17197  0.44721  0.68950  1.0000
  Ti  Ti21      1.0  0.80132  0.25737  0.20033  1.0000
  Ti  Ti22      1.0  0.54566  0.46094  0.37739  1.0000
  Ti  Ti23      1.0  0.28474  0.35664  0.87066  1.0000
  Ti  Ti24      1.0  0.34161  0.39796  0.63615  1.0000
  Ti  Ti25      1.0  0.79099  0.20280  0.40584  1.0000
  Ti  Ti26      1.0  0.22698  0.73667  0.13694  1.0000
  Ti  Ti27      1.0  0.81792  0.74549  0.40497  1.0000
  Ti  Ti28      1.0  0.39294  0.92773  0.41271  1.0000
  Ti  Ti29      1.0  0.01729  0.95488  0.64815  1.0000
  Ti  Ti30      1.0  0.20087  0.65147  0.17877  1.0000
  Ti  Ti31      1.0  0.84108  0.09871  0.47176  1.0000
  Ti  Ti32      1.0  0.37475  0.93386  0.57914  1.0000
  Ti  Ti33      1.0  0.58563  0.24849  0.13734  1.0000
  Ti  Ti34      1.0  0.25434  0.40573  0.22470  1.0000
  Ti  Ti35      1.0  0.55891  0.06727  0.79584  1.0000
  Ti  Ti36      1.0  0.62525  0.11409  0.22911  1.0000
  Ti  Ti37      1.0  0.50046  0.05590  0.81198  1.0000
  Ti  Ti38      1.0  0.45293  0.53087  0.60756  1.0000
  Ti  Ti39      1.0  0.86129  0.50715  0.41150  1.0000
  Ti  Ti40      1.0  0.71868  0.59957  0.98024  1.0000
  Ti  Ti41      1.0  0.32405  0.58567  0.51033  1.0000
  Ti  Ti42      1.0  0.99916  0.57986  0.39370  1.0000
  Ti  Ti43      1.0  0.25635  0.84734  0.43491  1.0000
  Ti  Ti44      1.0  0.97772  0.30606  0.83616  1.0000
  Ti  Ti45      1.0  0.88580  0.38800  0.84419  1.0000
  Ti  Ti46      1.0  0.80296  0.51184  0.69651  1.0000
  Ti  Ti47      1.0  0.72542  0.23536  0.68922  1.0000
  Ti  Ti48      1.0  0.76273  0.82905  0.94681  1.0000
  Ti  Ti49      1.0  0.19905  0.83670  0.40014  1.0000
  Ti  Ti50      1.0  0.19157  0.42628  0.60720  1.0000
  Ti  Ti51      1.0  0.56832  0.87945  0.49588  1.0000
  Ti  Ti52      1.0  0.42222  0.63611  0.49871  1.0000
  Ti  Ti53      1.0  0.05200  0.77412  0.49080  1.0000
  Ti  Ti54      1.0  0.40833  0.78117  0.88990  1.0000
  Ti  Ti55      1.0  0.62093  0.55955  0.49983  1.0000
  Ti  Ti56      1.0  0.74545  0.12066  0.55394  1.0000
  Ti  Ti57      1.0  0.11498  0.14541  0.73392  1.0000
  Ti  Ti58      1.0  0.47969  0.21039  0.26410  1.0000
  Ti  Ti59      1.0  0.10359  0.11343  0.15333  1.0000
  Ti  Ti60      1.0  0.04397  0.26970  0.30595  1.0000
  Ti  Ti61      1.0  0.49030  0.20837  0.83762  1.0000
  Ti  Ti62      1.0  0.72637  0.64962  0.77773  1.0000
  Ti  Ti63      1.0  0.08197  0.74469  0.26538  1.0000
  Ti  Ti64      1.0  0.64969  0.33383  0.20503  1.0000
  Ti  Ti65      1.0  0.78013  0.63764  0.98278  1.0000
  Ti  Ti66      1.0  0.45234  0.89782  0.34388  1.0000
  Ti  Ti67      1.0  0.14613  0.63117  0.85569  1.0000
  Ti  Ti68      1.0  0.81011  0.52027  0.77799  1.0000
  Ti  Ti69      1.0  0.18095  0.74946  0.08180  1.0000
  Ti  Ti70      1.0  0.31606  0.12594  0.53353  1.0000
  Ti  Ti71      1.0  0.32929  0.73979  0.05400  1.0000
  Ti  Ti72      1.0  0.70421  0.20455  0.73521  1.0000
  Ti  Ti73      1.0  0.56761  0.31441  0.45158  1.0000
  Ti  Ti74      1.0  0.74435  0.26016  0.40144  1.0000
  Ti  Ti75      1.0  0.74942  0.67444  0.16678  1.0000
  Ti  Ti76      1.0  0.94770  0.02408  0.12412  1.0000
  Ti  Ti77      1.0  0.97521  0.12714  0.56319  1.0000
  Ti  Ti78      1.0  0.07442  0.92456  0.68575  1.0000
  Ti  Ti79      1.0  0.50140  0.95970  0.37271  1.0000
  Ti  Ti80      1.0  0.90244  0.54709  0.64710  1.0000
  Ti  Ti81      1.0  0.29514  0.38117  0.85131  1.0000
  Ti  Ti82      1.0  0.74288  0.40365  0.22839  1.0000
  Ti  Ti83      1.0  0.87188  0.36717  0.93178  1.0000
  Ti  Ti84      1.0  0.63723  0.08836  0.14610  1.0000
  Ti  Ti85      1.0  0.45906  0.10244  0.76569  1.0000
  Ti  Ti86      1.0  0.63324  0.96308  0.43637  1.0000
  Ti  Ti87      1.0  0.59061  0.80630  0.80363  1.0000
  Ti  Ti88      1.0  0.01269  0.09349  0.27010  1.0000
  Ti  Ti89      1.0  0.08911  0.29688  0.98982  1.0000
  Ti  Ti90      1.0  0.19917  0.15548  0.12226  1.0000
  Ti  Ti91      1.0  0.61205  0.44802  0.68252  1.0000
  Ti  Ti92      1.0  0.53344  0.58668  0.90939  1.0000
  Ti  Ti93      1.0  0.40041  0.67499  0.78305  1.0000
  Ti  Ti94      1.0  0.79350  0.83336  0.90932  1.0000
  Ti  Ti95      1.0  0.79695  0.01240  0.23629  1.0000
  Ti  Ti96      1.0  0.50691  0.34532  0.99499  1.0000
  I   I1        1.0  0.71131  0.20953  0.66407  1.0000
  I   I2        1.0  0.57483  0.87644  0.42979  1.0000
  I   I3        1.0  0.20730  0.80482  0.44194  1.0000
  I   I4        1.0  0.06768  0.73416  0.49191  1.0000
  I   I5        1.0  0.46170  0.78505  0.17388  1.0000
  I   I6        1.0  0.37184  0.80367  0.88304  1.0000
  I   I7        1.0  0.80801  0.31566  0.25823  1.0000
  I   I8        1.0  0.76296  0.12295  0.60982  1.0000
  I   I9        1.0  0.17288  0.09662  0.74251  1.0000
  I   I10       1.0  0.75412  0.58182  0.97227  1.0000
  I   I11       1.0  0.95656  0.92633  0.65906  1.0000
  I   I12       1.0  0.69540  0.05147  0.53929  1.0000
  I   I13       1.0  0.71647  0.62643  0.82126  1.0000
  I   I14       1.0  0.11859  0.70440  0.26254  1.0000
  I   I15       1.0  0.94101  0.16032  0.53769  1.0000
  I   I16       1.0  0.71413  0.59565  0.04253  1.0000
  I   I17       1.0  0.40906  0.92891  0.33591  1.0000
  I   I18       1.0  0.65892  0.27964  0.14492  1.0000
  I   I19       1.0  0.09683  0.75857  0.31243  1.0000
  I   I20       1.0  0.97140  0.88937  0.57313  1.0000
  I   I21       1.0  0.81118  0.23898  0.26895  1.0000
  I   I22       1.0  0.29586  0.31728  0.86620  1.0000
  I   I23       1.0  0.01144  0.08516  0.20433  1.0000
  I   I24       1.0  0.31012  0.09735  0.52374  1.0000
  I   I25       1.0  0.77422  0.18261  0.43312  1.0000
  I   I26       1.0  0.75764  0.63940  0.19485  1.0000
  I   I27       1.0  0.57740  0.03743  0.75332  1.0000
  I   I28       1.0  0.38217  0.90243  0.39749  1.0000
  I   I29       1.0  0.04937  0.94747  0.60879  1.0000
  I   I30       1.0  0.16967  0.67615  0.15321  1.0000
  I   I31       1.0  0.91917  0.53290  0.58376  1.0000
  I   I32       1.0  0.31257  0.39828  0.88960  1.0000
  I   I33       1.0  0.53349  0.94240  0.42123  1.0000
  I   I34       1.0  0.53200  0.06301  0.83581  1.0000
  I   I35       1.0  0.65112  0.10093  0.09316  1.0000
  I   I36       1.0  0.26858  0.40069  0.16122  1.0000
  I   I37       1.0  0.50037  0.07661  0.74512  1.0000
  I   I38       1.0  0.82776  0.52837  0.35954  1.0000
  I   I39       1.0  0.48844  0.04887  0.87151  1.0000
  I   I40       1.0  0.98080  0.28026  0.77773  1.0000
  I   I41       1.0  0.21089  0.43516  0.55208  1.0000
  I   I42       1.0  0.71097  0.57408  0.94646  1.0000
  I   I43       1.0  0.50182  0.18523  0.30884  1.0000
  I   I44       1.0  0.96572  0.29068  0.88972  1.0000
  I   I45       1.0  0.90058  0.37926  0.91981  1.0000
  I   I46       1.0  0.79041  0.99185  0.19247  1.0000
  I   I47       1.0  0.71120  0.26215  0.73541  1.0000
  I   I48       1.0  0.78978  0.79585  0.90148  1.0000
  I   I49       1.0  0.21449  0.81408  0.34279  1.0000
  I   I50       1.0  0.53602  0.84592  0.61502  1.0000
  I   I51       1.0  0.52084  0.82408  0.55434  1.0000
  I   I52       1.0  0.88618  0.58483  0.65609  1.0000
  I   I53       1.0  0.08096  0.78743  0.48405  1.0000
  I   I54       1.0  0.40452  0.79483  0.95045  1.0000
  I   I55       1.0  0.59633  0.98068  0.41879  1.0000
  I   I56       1.0  0.79309  0.28491  0.30712  1.0000
  I   I57       1.0  0.83000  0.99241  0.26555  1.0000
  I   I58       1.0  0.86431  0.48273  0.36096  1.0000
  I   I59       1.0  0.12951  0.07755  0.13026  1.0000
  I   I60       1.0  0.05415  0.27969  0.36401  1.0000
  I   I61       1.0  0.70662  0.68863  0.80972  1.0000
  I   I62       1.0  0.69540  0.66307  0.73676  1.0000
  I   I63       1.0  0.16138  0.44658  0.76221  1.0000
  I   I64       1.0  0.07105  0.15189  0.17625  1.0000
  I   I65       1.0  0.80074  0.60370  0.95466  1.0000
  I   I66       1.0  0.35716  0.95222  0.40639  1.0000
  I   I67       1.0  0.38887  0.04437  0.48147  1.0000
  I   I68       1.0  0.16946  0.48080  0.72453  1.0000
  I   I69       1.0  0.22140  0.74220  0.06371  1.0000
  I   I70       1.0  0.31176  0.14879  0.48108  1.0000
  I   I71       1.0  0.25168  0.35653  0.88728  1.0000
  I   I72       1.0  0.66799  0.21767  0.72518  1.0000
  I   I73       1.0  0.79125  0.75292  0.45751  1.0000
  I   I74       1.0  0.23339  0.75981  0.17831  1.0000
  I   I75       1.0  0.26086  0.70660  0.12622  1.0000
  I   I76       1.0  0.95206  0.11813  0.59680  1.0000
  I   I77       1.0  0.92550  0.18391  0.63640  1.0000
  I   I78       1.0  0.80144  0.12289  0.46941  1.0000
  I   I79       1.0  0.55664  0.27288  0.10378  1.0000
  I   I80       1.0  0.64333  0.79467  0.00903  1.0000
  I   I81       1.0  0.39311  0.95519  0.56887  1.0000
  I   I82       1.0  0.77795  0.39853  0.26910  1.0000
  I   I83       1.0  0.88665  0.35155  0.86159  1.0000
  I   I84       1.0  0.60044  0.14521  0.26117  1.0000
  I   I85       1.0  0.46012  0.11328  0.70034  1.0000
  I   I86       1.0  0.48170  0.89685  0.36495  1.0000
  I   I87       1.0  0.89185  0.50957  0.39929  1.0000
  I   I88       1.0  0.82227  0.51577  0.45649  1.0000
  I   I89       1.0  0.28449  0.39276  0.27061  1.0000
  I   I90       1.0  0.19793  0.39715  0.56365  1.0000
  I   I91       1.0  0.64087  0.41602  0.72065  1.0000
  I   I92       1.0  0.54653  0.59640  0.96440  1.0000
  I   I93       1.0  0.00109  0.31277  0.79485  1.0000
  I   I94       1.0  0.79918  0.81593  0.97778  1.0000
  I   I95       1.0  0.77897  0.49836  0.73836  1.0000
  I   I96       1.0  0.58349  0.45139  0.36104  1.0000
  I   I97       1.0  0.12880  0.10209  0.54178  1.0000
  I   I98       1.0  0.69002  0.78125  0.92164  1.0000
  I   I99       1.0  0.52662  0.87689  0.50372  1.0000
  I   I100      1.0  0.30396  0.98790  0.85421  1.0000
  I   I101      1.0  0.03802  0.10641  0.25880  1.0000
  I   I102      1.0  0.69427  0.08116  0.43420  1.0000
  I   I103      1.0  0.67619  0.94272  0.42895  1.0000
  I   I104      1.0  0.58690  0.58439  0.52846  1.0000
  I   I105      1.0  0.14384  0.13507  0.68109  1.0000
  I   I106      1.0  0.21813  0.99655  0.07941  1.0000
  I   I107      1.0  0.79105  0.51196  0.39212  1.0000
  I   I108      1.0  0.19577  0.96889  0.12469  1.0000
  I   I109      1.0  0.88540  0.16550  0.58892  1.0000
  I   I110      1.0  0.66584  0.73308  0.82530  1.0000
  I   I111      1.0  0.15718  0.47592  0.64507  1.0000
  I   I112      1.0  0.63345  0.35758  0.25701  1.0000
  I   I113      1.0  0.79876  0.65426  0.00890  1.0000
  I   I114      1.0  0.17602  0.17295  0.18260  1.0000
  I   I115      1.0  0.11901  0.62240  0.87689  1.0000
  I   I116      1.0  0.15191  0.64469  0.91197  1.0000
  I   I117      1.0  0.81933  0.49148  0.81567  1.0000
  I   I118      1.0  0.49444  0.34685  0.92700  1.0000
  I   I119      1.0  0.17742  0.59925  0.84502  1.0000
  I   I120      1.0  0.70378  0.25260  0.63484  1.0000
  I   I121      1.0  0.58216  0.32136  0.39746  1.0000
  I   I122      1.0  0.81006  0.18656  0.34847  1.0000
  I   I123      1.0  0.76823  0.68774  0.20232  1.0000
  I   I124      1.0  0.20532  0.61690  0.18136  1.0000
  I   I125      1.0  0.91286  0.04390  0.09433  1.0000
  I   I126      1.0  0.08486  0.95220  0.70346  1.0000
  I   I127      1.0  0.59863  0.21318  0.10995  1.0000
  I   I128      1.0  0.27839  0.99181  0.98175  1.0000
  I   I129      1.0  0.28061  0.41783  0.80840  1.0000
  I   I130      1.0  0.61152  0.12725  0.15722  1.0000
  I   I131      1.0  0.73857  0.43925  0.23365  1.0000
  I   I132      1.0  0.59146  0.06426  0.81840  1.0000
  I   I133      1.0  0.87793  0.48671  0.46729  1.0000
  I   I134      1.0  0.41975  0.55266  0.63738  1.0000
  I   I135      1.0  0.46408  0.86186  0.33863  1.0000
  I   I136      1.0  0.02846  0.55623  0.43435  1.0000
  I   I137      1.0  0.43262  0.65583  0.54414  1.0000
  I   I138      1.0  0.10504  0.32053  0.98036  1.0000
  I   I139      1.0  0.62067  0.42963  0.62152  1.0000
  I   I140      1.0  0.54540  0.59912  0.85642  1.0000
  I   I141      1.0  0.38981  0.66682  0.72446  1.0000
  I   I142      1.0  0.82331  0.83961  0.90469  1.0000
  I   I143      1.0  0.07646  0.12354  0.44377  1.0000
  I   I144      1.0  0.52555  0.45184  0.33108  1.0000
  I   I145      1.0  0.69931  0.74117  0.98542  1.0000
  I   I146      1.0  0.57192  0.85559  0.55516  1.0000
  I   I147      1.0  0.06540  0.15103  0.51771  1.0000
  I   I148      1.0  0.44107  0.62711  0.44392  1.0000
  I   I149      1.0  0.64936  0.10985  0.49771  1.0000
  I   I150      1.0  0.45603  0.77060  0.27499  1.0000
  I   I151      1.0  0.62105  0.52688  0.48974  1.0000
  I   I152      1.0  0.79469  0.28942  0.16655  1.0000
  I   I153      1.0  0.16640  0.11540  0.84853  1.0000
  I   I154      1.0  0.25442  0.87962  0.40454  1.0000
  I   I155      1.0  0.94933  0.95220  0.55340  1.0000
  I   I156      1.0  0.04806  0.23774  0.33408  1.0000
  I   I157      1.0  0.00596  0.10857  0.60235  1.0000
  I   I158      1.0  0.04768  0.77041  0.24724  1.0000
  I   I159      1.0  0.51653  0.22113  0.84051  1.0000
  I   I160      1.0  0.62353  0.32170  0.20669  1.0000
  I   I161      1.0  0.16438  0.21687  0.22177  1.0000
  I   I162      1.0  0.65329  0.33129  0.11605  1.0000
  I   I163      1.0  0.41163  0.99866  0.43850  1.0000
  I   I164      1.0  0.83846  0.49940  0.72775  1.0000
  I   I165      1.0  0.76520  0.29304  0.23521  1.0000
  I   I166      1.0  0.50089  0.36593  0.05188  1.0000
  I   I167      1.0  0.25931  0.38947  0.82352  1.0000
  I   I168      1.0  0.36117  0.40738  0.67691  1.0000
  I   I169      1.0  0.70717  0.26596  0.41798  1.0000
  I   I170      1.0  0.78051  0.24023  0.37572  1.0000
  I   I171      1.0  0.85199  0.71409  0.42119  1.0000
  I   I172      1.0  0.94615  0.99748  0.16541  1.0000
  I   I173      1.0  0.07076  0.90962  0.74281  1.0000
  I   I174      1.0  0.23312  0.65129  0.16473  1.0000
  I   I175      1.0  0.84692  0.08579  0.40722  1.0000
  I   I176      1.0  0.40886  0.91365  0.61336  1.0000
  I   I177      1.0  0.47957  0.97345  0.31675  1.0000
  I   I178      1.0  0.70611  0.40962  0.21356  1.0000
  I   I179      1.0  0.84973  0.38825  0.97992  1.0000
  I   I180      1.0  0.66328  0.10394  0.19850  1.0000
  I   I181      1.0  0.51655  0.02229  0.77890  1.0000
  I   I182      1.0  0.63671  0.98491  0.38233  1.0000
  I   I183      1.0  0.58294  0.81279  0.73807  1.0000
  I   I184      1.0  0.97949  0.12327  0.27989  1.0000
  I   I185      1.0  0.06052  0.30245  0.95541  1.0000
  I   I186      1.0  0.98482  0.61007  0.43248  1.0000
  I   I187      1.0  0.54528  0.54864  0.90048  1.0000
  I   I188      1.0  0.97981  0.32088  0.89836  1.0000
  I   I189      1.0  0.58918  0.77461  0.81351  1.0000
  I   I190      1.0  0.83202  0.47315  0.67743  1.0000
  I   I191      1.0  0.17397  0.13886  0.11868  1.0000
  I   I192      1.0  0.08863  0.08852  0.53816  1.0000
  I   I193      1.0  0.99010  0.99134  0.63427  1.0000
  I   I194      1.0  0.21202  0.43342  0.67233  1.0000
  I   I195      1.0  0.13043  0.09022  0.46576  1.0000
  I   I196      1.0  0.26032  0.06190  0.84514  1.0000
  I   I197      1.0  0.44967  0.20798  0.24400  1.0000
  I   I198      1.0  0.48354  0.80236  0.24391  1.0000
  I   I199      1.0  0.34236  0.95784  0.61323  1.0000
  I   I200      1.0  0.77529  0.09596  0.51925  1.0000
  I   I201      1.0  0.17264  0.14426  0.76535  1.0000
  I   I202      1.0  0.06253  0.20154  0.14407  1.0000
  I   I203      1.0  0.19266  0.77578  0.12807  1.0000
  I   I204      1.0  0.24817  0.92450  0.09488  1.0000
  I   I205      1.0  0.74449  0.63172  0.72628  1.0000
  I   I206      1.0  0.30322  0.02634  0.78446  1.0000
  I   I207      1.0  0.98205  0.10788  0.49655  1.0000
  I   I208      1.0  0.10612  0.16683  0.21666  1.0000
  I   I209      1.0  0.16356  0.25005  0.14500  1.0000
  I   I210      1.0  0.52218  0.92833  0.33653  1.0000
  I   I211      1.0  0.32861  0.11387  0.60240  1.0000
  I   I212      1.0  0.09455  0.75110  0.20717  1.0000
  I   I213      1.0  0.14775  0.76772  0.11180  1.0000
  I   I214      1.0  0.54263  0.49572  0.36678  1.0000
  I   I215      1.0  0.30708  0.35216  0.79726  1.0000
  I   I216      1.0  0.35803  0.69122  0.79219  1.0000
  I   I217      1.0  0.82021  0.18220  0.45071  1.0000
  I   I218      1.0  0.71405  0.70313  0.15588  1.0000
  I   I219      1.0  0.59280  0.31371  0.49378  1.0000
  I   I220      1.0  0.92058  0.13907  0.67561  1.0000
  I   I221      1.0  0.02275  0.96184  0.71172  1.0000
  I   I222      1.0  0.96088  0.01867  0.06060  1.0000
  I   I223      1.0  0.85866  0.10136  0.52699  1.0000
  I   I224      1.0  0.36046  0.91963  0.53453  1.0000
  I   I225      1.0  0.60995  0.25951  0.11262  1.0000
  I   I226      1.0  0.76657  0.38263  0.17870  1.0000
  I   I227      1.0  0.54772  0.09775  0.75487  1.0000
  I   I228      1.0  0.63983  0.09550  0.29426  1.0000
  I   I229      1.0  0.47750  0.24164  0.29287  1.0000
  I   I230      1.0  0.43464  0.50871  0.60630  1.0000
  I   I231      1.0  0.83120  0.46372  0.37599  1.0000
  I   I232      1.0  0.33223  0.95832  0.95073  1.0000
  I   I233      1.0  0.31150  0.56179  0.52952  1.0000
  I   I234      1.0  0.20797  0.19015  0.13089  1.0000
  I   I235      1.0  0.29334  0.82670  0.45279  1.0000
  I   I236      1.0  0.41372  0.69324  0.81928  1.0000
  I   I237      1.0  0.58357  0.48015  0.65116  1.0000
  I   I238      1.0  0.80083  0.04264  0.26397  1.0000
  I   I239      1.0  0.53946  0.33350  0.95251  1.0000
  I   I240      1.0  0.73535  0.83745  0.90556  1.0000
  I   I241      1.0  0.65903  0.74711  0.92240  1.0000
  I   I242      1.0  0.57694  0.80972  0.55258  1.0000
  I   I243      1.0  0.81447  0.51459  0.63456  1.0000
  I   I244      1.0  0.00643  0.07524  0.32617  1.0000
  I   I245      1.0  0.02836  0.78375  0.43395  1.0000
  I   I246      1.0  0.43195  0.83625  0.24340  1.0000
  I   I247      1.0  0.63440  0.01719  0.46141  1.0000
  I   I248      1.0  0.77138  0.24906  0.19388  1.0000
  I   I249      1.0  0.11958  0.11969  0.77880  1.0000
  I   I250      1.0  0.07482  0.10818  0.12861  1.0000
  I   I251      1.0  0.00463  0.88984  0.61855  1.0000
  I   I252      1.0  0.07058  0.25687  0.25840  1.0000
  I   I253      1.0  0.67036  0.72611  0.71786  1.0000
  I   I254      1.0  0.26898  0.02435  0.90668  1.0000
  I   I255      1.0  0.48568  0.18464  0.88433  1.0000
  I   I256      1.0  0.76845  0.63090  0.04309  1.0000
  I   I257      1.0  0.47973  0.09657  0.82717  1.0000
  I   I258      1.0  0.70630  0.28983  0.12630  1.0000
  I   I259      1.0  0.13555  0.65462  0.80411  1.0000
  I   I260      1.0  0.83179  0.53627  0.79729  1.0000
  I   I261      1.0  0.83034  0.23696  0.15451  1.0000
  I   I262      1.0  0.52987  0.46857  0.43823  1.0000
  I   I263      1.0  0.29778  0.77658  0.06038  1.0000
  I   I264      1.0  0.60623  0.09609  0.21503  1.0000
  I   I265      1.0  0.76618  0.23594  0.45818  1.0000
  I   I266      1.0  0.21531  0.71437  0.16960  1.0000
  I   I267      1.0  0.57993  0.27738  0.45049  1.0000
  I   I268      1.0  0.40094  0.94420  0.47003  1.0000
  I   I269      1.0  0.10211  0.90199  0.64608  1.0000
  I   I270      1.0  0.44472  0.91627  0.28602  1.0000
  I   I271      1.0  0.83072  0.07502  0.50820  1.0000
  I   I272      1.0  0.27119  0.39264  0.91732  1.0000
  I   I273      1.0  0.58343  0.25623  0.20242  1.0000
  I   I274      1.0  0.33125  0.57996  0.44028  1.0000
  I   I275      1.0  0.81043  0.73324  0.34961  1.0000
  I   I276      1.0  0.61311  0.07714  0.11246  1.0000
  I   I277      1.0  0.74017  0.38083  0.28344  1.0000
  I   I278      1.0  0.46685  0.55409  0.61590  1.0000
  I   I279      1.0  0.94834  0.33243  0.80435  1.0000
  I   I280      1.0  0.41519  0.61082  0.53431  1.0000
  I   I281      1.0  0.29481  0.61824  0.48301  1.0000
  I   I282      1.0  0.98594  0.56428  0.34418  1.0000
  I   I283      1.0  0.24872  0.85789  0.49878  1.0000
  I   I284      1.0  0.30693  0.42585  0.61471  1.0000
  I   I285      1.0  0.60139  0.82962  0.82341  1.0000
  I   I286      1.0  0.81504  0.02041  0.18226  1.0000
  I   I287      1.0  0.69284  0.22934  0.78657  1.0000
  I   I288      1.0  0.76256  0.86591  0.95192  1.0000
  I   I289      1.0  0.23673  0.83368  0.39476  1.0000
  I   I290      1.0  0.15000  0.20841  0.10613  1.0000
  I   I291      1.0  0.54646  0.91427  0.51110  1.0000
  I   I292      1.0  0.38745  0.66702  0.48242  1.0000
  I   I293      1.0  0.02282  0.78716  0.53560  1.0000
  I   I294      1.0  0.42425  0.79489  0.84744  1.0000
  I   I295      1.0  0.67292  0.98420  0.52836  1.0000
  I   I296      1.0  0.73069  0.09943  0.59762  1.0000
  I   I297      1.0  0.08144  0.17006  0.70735  1.0000
  I   I298      1.0  0.50097  0.20167  0.20291  1.0000
  I   I299      1.0  0.11283  0.18120  0.11703  1.0000
  I   I300      1.0  0.41312  0.63871  0.81632  1.0000
  I   I301      1.0  0.49828  0.18938  0.78298  1.0000
  I   I302      1.0  0.63905  0.70377  0.77242  1.0000
  I   I303      1.0  0.71371  0.62862  0.93645  1.0000
  I   I304      1.0  0.67709  0.29153  0.23370  1.0000
  I   I305      1.0  0.11586  0.11033  0.21529  1.0000
  I   I306      1.0  0.69490  0.97015  0.45382  1.0000
  I   I307      1.0  0.38695  0.06137  0.39182  1.0000
  I   I308      1.0  0.16475  0.42189  0.66204  1.0000
  I   I309      1.0  0.83973  0.26814  0.21204  1.0000
  I   I310      1.0  0.19435  0.85022  0.46268  1.0000
  I   I311      1.0  0.33629  0.73271  0.98783  1.0000
  I   I312      1.0  0.74349  0.20092  0.74736  1.0000
  I   I313      1.0  0.53426  0.33242  0.48215  1.0000
  I   I314      1.0  0.74190  0.28923  0.43853  1.0000
  I   I315      1.0  0.76513  0.66460  0.10420  1.0000
  I   I316      1.0  0.94642  0.05455  0.15680  1.0000
  I   I317      1.0  0.43137  0.89787  0.41668  1.0000
  I   I318      1.0  0.00310  0.93993  0.59614  1.0000
  I   I319      1.0  0.51109  0.98501  0.40139  1.0000
  I   I320      1.0  0.31254  0.04416  0.86301  1.0000
  I   I321      1.0  0.64499  0.56119  0.54573  1.0000
  I   I322      1.0  0.22595  0.44285  0.21820  1.0000
  I   I323      1.0  0.90556  0.40747  0.84364  1.0000
  I   I324      1.0  0.65250  0.05928  0.19292  1.0000
  I   I325      1.0  0.42083  0.13442  0.77230  1.0000
  I   I326      1.0  0.63983  0.96414  0.50513  1.0000
  I   I327      1.0  0.87424  0.39540  0.78126  1.0000
  I   I328      1.0  0.84941  0.54544  0.42627  1.0000
  I   I329      1.0  0.08987  0.28031  0.04585  1.0000
  I   I330      1.0  0.19681  0.16149  0.05426  1.0000
  I   I331      1.0  0.55633  0.82437  0.82674  1.0000
  I   I332      1.0  0.22330  0.11853  0.13211  1.0000
  I   I333      1.0  0.24021  0.38320  0.24446  1.0000
  I   I334      1.0  0.78193  0.84707  0.84443  1.0000
  I   I335      1.0  0.77224  0.54459  0.78832  1.0000
  I   I336      1.0  0.51955  0.30998  0.02261  1.0000
  I   I337      1.0  0.16383  0.84981  0.37047  1.0000
  I   I338      1.0  0.15844  0.44609  0.57405  1.0000
  I   I339      1.0  0.60216  0.87763  0.51651  1.0000
  I   I340      1.0  0.88332  0.53668  0.69568  1.0000
  I   I341      1.0  0.65504  0.06295  0.44520  1.0000
  I   I342      1.0  0.41241  0.74587  0.88184  1.0000
  I   I343      1.0  0.63604  0.55802  0.43520  1.0000
  I   I344      1.0  0.73670  0.15599  0.52632  1.0000
  I   I345      1.0  0.11736  0.17008  0.77878  1.0000
  I   I346      1.0  0.28076  0.14900  0.56133  1.0000
  I   I347      1.0  0.12087  0.13283  0.12626  1.0000
  I   I348      1.0  0.01418  0.29614  0.27214  1.0000
  I   I349      1.0  0.45959  0.24416  0.83093  1.0000
  I   I350      1.0  0.75378  0.64765  0.82440  1.0000
  I   I351      1.0  0.28949  0.95387  0.90757  1.0000
  I   I352      1.0  0.68839  0.32728  0.20482  1.0000
  I   I353      1.0  0.74724  0.66990  0.96757  1.0000
  I   I354      1.0  0.62755  0.93163  0.42031  1.0000
  I   I355      1.0  0.44915  0.02175  0.43217  1.0000
  I   I356      1.0  0.79635  0.54924  0.70755  1.0000
  I   I357      1.0  0.17283  0.75764  0.01560  1.0000
  I   I358      1.0  0.35492  0.38864  0.57641  1.0000
  I   I359      1.0  0.31444  0.71660  0.06917  1.0000
  I   I360      1.0  0.71585  0.16858  0.75580  1.0000
  I   I361      1.0  0.82131  0.77627  0.38693  1.0000
  I   I362      1.0  0.73453  0.28064  0.34512  1.0000
  I   I363      1.0  0.19127  0.71418  0.06646  1.0000
  I   I364      1.0  0.20158  0.66450  0.24280  1.0000
  I   I365      1.0  0.99749  0.14387  0.54295  1.0000
  I   I366      1.0  0.03738  0.91400  0.67625  1.0000
  I   I367      1.0  0.48589  0.94627  0.42665  1.0000
  I   I368      1.0  0.93354  0.54150  0.67489  1.0000
  I   I369      1.0  0.32374  0.34508  0.88801  1.0000
  I   I370      1.0  0.35187  0.56982  0.55780  1.0000
  I   I371      1.0  0.85339  0.41349  0.87539  1.0000
  I   I372      1.0  0.33287  0.37575  0.66975  1.0000
  I   I373      1.0  0.46140  0.06885  0.77638  1.0000
  I   I374      1.0  0.44420  0.53997  0.54015  1.0000
  I   I375      1.0  0.89864  0.33580  0.96208  1.0000
  I   I376      1.0  0.35248  0.74706  0.09309  1.0000
  I   I377      1.0  0.11649  0.26744  0.95399  1.0000
  I   I378      1.0  0.01192  0.59062  0.33711  1.0000
  I   I379      1.0  0.58509  0.44566  0.72077  1.0000
  I   I380      1.0  0.49580  0.60536  0.91259  1.0000
  I   I381      1.0  0.24560  0.95877  0.16740  1.0000
  I   I382      1.0  0.75233  0.80665  0.98942  1.0000
  I   I383      1.0  0.76856  0.01270  0.28397  1.0000
  I   I384      1.0  0.75524  0.23602  0.65237  1.0000
