data_image0
_chemical_formula_structural       Ti96I384
_chemical_formula_sum              "Ti96 I384"
_cell_length_a       55.1368
_cell_length_b       55.4125
_cell_length_c       26.7009
_cell_angle_alpha    88.7757
_cell_angle_beta     88.7757
_cell_angle_gamma    62.1586

_space_group_name_H-M_alt    "P 1"
_space_group_IT_number       1

loop_
  _space_group_symop_operation_xyz
  'x, y, z'

loop_
  _atom_site_type_symbol
  _atom_site_label
  _atom_site_symmetry_multiplicity
  _atom_site_fract_x
  _atom_site_fract_y
  _atom_site_fract_z
  _atom_site_occupancy
  Ti  Ti1       1.0  0.81053  0.59461  0.17528  1.0000
  Ti  Ti2       1.0  0.89178  0.03669  0.14736  1.0000
  Ti  Ti3       1.0  0.70326  0.73959  0.26292  1.0000
  Ti  Ti4       1.0  0.32776  0.11282  0.64815  1.0000
  Ti  Ti5       1.0  0.94404  0.28569  0.25805  1.0000
  Ti  Ti6       1.0  0.10270  0.29566  0.81593  1.0000
  Ti  Ti7       1.0  0.95052  0.88531  0.30555  1.0000
  Ti  Ti8       1.0  0.97680  0.10828  0.64835  1.0000
  Ti  Ti9       1.0  0.86374  0.89545  0.79946  1.0000
  Ti  Ti10      1.0  0.38729  0.86759  0.10176  1.0000
  Ti  Ti11      1.0  0.07442  0.59728  0.99159  1.0000
  Ti  Ti12      1.0  0.89764  0.69426  0.47818  1.0000
  Ti  Ti13      1.0  0.34324  0.30875  0.53207  1.0000
  Ti  Ti14      1.0  0.31055  0.20873  0.29715  1.0000
  Ti  Ti15      1.0  0.26356  0.08725  0.01086  1.0000
  Ti  Ti16      1.0  0.22302  0.62544  0.04043  1.0000
  Ti  Ti17      1.0  0.23826  0.74403  0.12319  1.0000
  Ti  Ti18      1.0  0.18835  0.43594  0.03702  1.0000
  Ti  Ti19      1.0  0.65288  0.69459  0.57789  1.0000
  Ti  Ti20      1.0  0.75370  0.81998  0.88608  1.0000
  Ti  Ti21      1.0  0.30287  0.42874  0.30620  1.0000
  Ti  Ti22      1.0  0.53017  0.96347  0.49061  1.0000
  Ti  Ti23      1.0  0.70517  0.92761  0.67426  1.0000
  Ti  Ti24      1.0  0.47330  0.88847  0.65647  1.0000
  Ti  Ti25      1.0  0.33454  0.22698  0.94663  1.0000
  Ti  Ti26      1.0  0.25381  0.33438  0.77791  1.0000
  Ti  Ti27      1.0  0.32486  0.52701  0.69319  1.0000
  Ti  Ti28      1.0  0.48327  0.62341  0.69479  1.0000
  Ti  Ti29      1.0  0.66558  0.45282  0.70342  1.0000
  Ti  Ti30      1.0  0.80188  0.44852  0.65276  1.0000
  Ti  Ti31      1.0  0.65631  0.43350  0.09779  1.0000
  Ti  Ti32      1.0  0.79276  0.29905  0.52181  1.0000
  Ti  Ti33      1.0  0.96585  0.37579  0.08040  1.0000
  Ti  Ti34      1.0  0.04059  0.77922  0.10415  1.0000
  Ti  Ti35      1.0  0.68483  0.68911  0.87181  1.0000
  Ti  Ti36      1.0  0.99177  0.56230  0.82254  1.0000
  Ti  Ti37      1.0  0.60368  0.27804  0.15001  1.0000
  Ti  Ti38      1.0  0.50039  0.35489  0.33614  1.0000
  Ti  Ti39      1.0  0.50286  0.47727  0.07949  1.0000
  Ti  Ti40      1.0  0.16736  0.99883  0.44048  1.0000
  Ti  Ti41      1.0  0.61691  0.28397  0.71253  1.0000
  Ti  Ti42      1.0  0.41051  0.79111  0.70307  1.0000
  Ti  Ti43      1.0  0.79990  0.20621  0.85611  1.0000
  Ti  Ti44      1.0  0.90764  0.45783  0.36834  1.0000
  Ti  Ti45      1.0  0.04049  0.47031  0.33306  1.0000
  Ti  Ti46      1.0  0.64888  0.12644  0.36185  1.0000
  Ti  Ti47      1.0  0.56436  0.05857  0.17526  1.0000
  Ti  Ti48      1.0  0.40214  0.31937  0.79006  1.0000
  Ti  Ti49      1.0  0.75756  0.66357  0.22304  1.0000
  Ti  Ti50      1.0  0.83224  0.02650  0.06494  1.0000
  Ti  Ti51      1.0  0.92116  0.06889  0.24391  1.0000
  Ti  Ti52      1.0  0.30638  0.10713  0.53013  1.0000
  Ti  Ti53      1.0  0.94860  0.21857  0.22588  1.0000
  Ti  Ti54      1.0  0.05236  0.28404  0.86552  1.0000
  Ti  Ti55      1.0  0.00925  0.88282  0.36649  1.0000
  Ti  Ti56      1.0  0.97497  0.05502  0.65910  1.0000
  Ti  Ti57      1.0  0.83535  0.95865  0.79844  1.0000
  Ti  Ti58      1.0  0.34241  0.83645  0.15419  1.0000
  Ti  Ti59      1.0  0.47505  0.83991  0.03686  1.0000
  Ti  Ti60      1.0  0.88296  0.69172  0.33404  1.0000
  Ti  Ti61      1.0  0.28655  0.06573  0.12332  1.0000
  Ti  Ti62      1.0  0.42007  0.26073  0.47180  1.0000
  Ti  Ti63      1.0  0.36032  0.17490  0.22001  1.0000
  Ti  Ti64      1.0  0.23252  0.36759  0.12436  1.0000
  Ti  Ti65      1.0  0.21232  0.69830  0.02543  1.0000
  Ti  Ti66      1.0  0.17875  0.79614  0.60561  1.0000
  Ti  Ti67      1.0  0.58141  0.74532  0.62191  1.0000
  Ti  Ti68      1.0  0.81323  0.78308  0.96931  1.0000
  Ti  Ti69      1.0  0.29841  0.46443  0.19788  1.0000
  Ti  Ti70      1.0  0.47964  0.96355  0.58357  1.0000
  Ti  Ti71      1.0  0.74636  0.90914  0.51723  1.0000
  Ti  Ti72      1.0  0.65475  0.99652  0.77659  1.0000
  Ti  Ti73      1.0  0.37520  0.46063  0.77200  1.0000
  Ti  Ti74      1.0  0.28337  0.24663  0.81504  1.0000
  Ti  Ti75      1.0  0.18184  0.38371  0.66909  1.0000
  Ti  Ti76      1.0  0.86716  0.46368  0.72585  1.0000
  Ti  Ti77      1.0  0.54718  0.58133  0.78441  1.0000
  Ti  Ti78      1.0  0.73587  0.43005  0.72113  1.0000
  Ti  Ti79      1.0  0.88475  0.44724  0.07117  1.0000
  Ti  Ti80      1.0  0.73166  0.38884  0.11358  1.0000
  Ti  Ti81      1.0  0.86055  0.27585  0.45421  1.0000
  Ti  Ti82      1.0  0.96976  0.75239  0.13503  1.0000
  Ti  Ti83      1.0  0.70904  0.61557  0.92010  1.0000
  Ti  Ti84      1.0  0.92855  0.61864  0.87706  1.0000
  Ti  Ti85      1.0  0.65963  0.22575  0.16192  1.0000
  Ti  Ti86      1.0  0.50601  0.29898  0.21835  1.0000
  Ti  Ti87      1.0  0.45428  0.51479  0.15779  1.0000
  Ti  Ti88      1.0  0.18781  0.95786  0.53080  1.0000
  Ti  Ti89      1.0  0.64340  0.21120  0.69328  1.0000
  Ti  Ti90      1.0  0.40957  0.73041  0.81034  1.0000
  Ti  Ti91      1.0  0.04341  0.51132  0.47206  1.0000
  Ti  Ti92      1.0  0.72826  0.25833  0.97083  1.0000
  Ti  Ti93      1.0  0.97183  0.45158  0.31258  1.0000
  Ti  Ti94      1.0  0.48922  0.30197  0.79957  1.0000
  Ti  Ti95      1.0  0.66942  0.10040  0.48973  1.0000
  Ti  Ti96      1.0  0.52078  0.05429  0.09344  1.0000
  I   I1        1.0  0.80140  0.04749  0.98539  1.0000
  I   I2        1.0  0.91412  0.07116  0.14145  1.0000
  I   I3        1.0  0.74551  0.62067  0.20721  1.0000
  I   I4        1.0  0.89995  0.27536  0.22836  1.0000
  I   I5        1.0  0.03932  0.25941  0.93762  1.0000
  I   I6        1.0  0.09288  0.25009  0.80235  1.0000
  I   I7        1.0  0.98308  0.01391  0.71330  1.0000
  I   I8        1.0  0.96722  0.11605  0.54591  1.0000
  I   I9        1.0  0.81253  0.91334  0.77488  1.0000
  I   I10       1.0  0.38892  0.91326  0.10768  1.0000
  I   I11       1.0  0.06134  0.62252  0.90392  1.0000
  I   I12       1.0  0.38358  0.78947  0.18486  1.0000
  I   I13       1.0  0.36158  0.28201  0.43921  1.0000
  I   I14       1.0  0.40084  0.18476  0.18442  1.0000
  I   I15       1.0  0.32414  0.05047  0.04569  1.0000
  I   I16       1.0  0.24566  0.65620  0.97365  1.0000
  I   I17       1.0  0.15568  0.82285  0.68755  1.0000
  I   I18       1.0  0.28139  0.36291  0.14425  1.0000
  I   I19       1.0  0.81963  0.75404  0.05220  1.0000
  I   I20       1.0  0.29975  0.39689  0.24381  1.0000
  I   I21       1.0  0.30144  0.50550  0.15438  1.0000
  I   I22       1.0  0.72848  0.94723  0.44929  1.0000
  I   I23       1.0  0.73511  0.94762  0.60594  1.0000
  I   I24       1.0  0.49366  0.93030  0.67230  1.0000
  I   I25       1.0  0.28215  0.23123  0.92466  1.0000
  I   I26       1.0  0.20277  0.33519  0.73773  1.0000
  I   I27       1.0  0.38733  0.48669  0.68920  1.0000
  I   I28       1.0  0.51699  0.63776  0.76884  1.0000
  I   I29       1.0  0.71709  0.39457  0.67032  1.0000
  I   I30       1.0  0.83907  0.43484  0.73777  1.0000
  I   I31       1.0  0.63937  0.40359  0.14757  1.0000
  I   I32       1.0  0.78113  0.34075  0.46644  1.0000
  I   I33       1.0  0.98986  0.39062  0.01213  1.0000
  I   I34       1.0  0.69973  0.72443  0.90341  1.0000
  I   I35       1.0  0.95746  0.57412  0.74777  1.0000
  I   I36       1.0  0.97541  0.70333  0.13268  1.0000
  I   I37       1.0  0.56056  0.30403  0.22448  1.0000
  I   I38       1.0  0.42543  0.56339  0.19124  1.0000
  I   I39       1.0  0.68602  0.19337  0.22996  1.0000
  I   I40       1.0  0.65336  0.21141  0.59358  1.0000
  I   I41       1.0  0.42798  0.71692  0.89827  1.0000
  I   I42       1.0  0.15582  0.02319  0.54808  1.0000
  I   I43       1.0  0.79634  0.24387  0.79534  1.0000
  I   I44       1.0  0.91424  0.48685  0.29248  1.0000
  I   I45       1.0  0.06363  0.45926  0.25140  1.0000
  I   I46       1.0  0.60443  0.15193  0.30138  1.0000
  I   I47       1.0  0.61402  0.02032  0.15335  1.0000
  I   I48       1.0  0.45575  0.27438  0.78626  1.0000
  I   I49       1.0  0.78904  0.56841  0.12136  1.0000
  I   I50       1.0  0.92114  0.01089  0.06310  1.0000
  I   I51       1.0  0.91387  0.12173  0.25570  1.0000
  I   I52       1.0  0.25815  0.11409  0.49771  1.0000
  I   I53       1.0  0.94420  0.24618  0.33024  1.0000
  I   I54       1.0  0.09969  0.29287  0.91983  1.0000
  I   I55       1.0  0.95320  0.88111  0.40238  1.0000
  I   I56       1.0  0.92678  0.07521  0.62582  1.0000
  I   I57       1.0  0.90249  0.91327  0.79397  1.0000
  I   I58       1.0  0.41716  0.86562  0.01074  1.0000
  I   I59       1.0  0.48761  0.87528  0.99462  1.0000
  I   I60       1.0  0.86427  0.73431  0.39925  1.0000
  I   I61       1.0  0.39323  0.26942  0.56677  1.0000
  I   I62       1.0  0.46759  0.23234  0.51792  1.0000
  I   I63       1.0  0.30441  0.16739  0.30584  1.0000
  I   I64       1.0  0.19421  0.61699  0.10996  1.0000
  I   I65       1.0  0.18860  0.73958  0.09636  1.0000
  I   I66       1.0  0.14382  0.78122  0.57070  1.0000
  I   I67       1.0  0.53885  0.73782  0.60894  1.0000
  I   I68       1.0  0.70329  0.86197  0.89186  1.0000
  I   I69       1.0  0.26093  0.45463  0.37105  1.0000
  I   I70       1.0  0.47358  0.97676  0.47705  1.0000
  I   I71       1.0  0.73760  0.87462  0.69773  1.0000
  I   I72       1.0  0.65465  0.97151  0.86307  1.0000
  I   I73       1.0  0.33432  0.54879  0.62013  1.0000
  I   I74       1.0  0.27565  0.28163  0.73800  1.0000
  I   I75       1.0  0.17228  0.35817  0.60463  1.0000
  I   I76       1.0  0.53662  0.59193  0.65641  1.0000
  I   I77       1.0  0.48168  0.59856  0.77535  1.0000
  I   I78       1.0  0.76359  0.46173  0.74453  1.0000
  I   I79       1.0  0.88351  0.49414  0.07708  1.0000
  I   I80       1.0  0.71036  0.38277  0.20049  1.0000
  I   I81       1.0  0.82770  0.25086  0.46830  1.0000
  I   I82       1.0  0.03720  0.82580  0.13305  1.0000
  I   I83       1.0  0.63490  0.72080  0.90408  1.0000
  I   I84       1.0  0.96991  0.62412  0.82128  1.0000
  I   I85       1.0  0.60497  0.23190  0.17791  1.0000
  I   I86       1.0  0.46708  0.28749  0.21011  1.0000
  I   I87       1.0  0.44711  0.51908  0.05988  1.0000
  I   I88       1.0  0.11323  0.01476  0.43987  1.0000
  I   I89       1.0  0.59972  0.31352  0.78977  1.0000
  I   I90       1.0  0.44354  0.75232  0.77971  1.0000
  I   I91       1.0  0.00861  0.56490  0.49381  1.0000
  I   I92       1.0  0.85016  0.16858  0.85931  1.0000
  I   I93       1.0  0.02438  0.42493  0.34753  1.0000
  I   I94       1.0  0.49998  0.34398  0.82079  1.0000
  I   I95       1.0  0.70255  0.04758  0.48847  1.0000
  I   I96       1.0  0.47483  0.08592  0.05454  1.0000
  I   I97       1.0  0.71864  0.76291  0.32421  1.0000
  I   I98       1.0  0.86103  0.57708  0.15870  1.0000
  I   I99       1.0  0.94349  0.00581  0.20078  1.0000
  I   I100      1.0  0.33559  0.07680  0.45135  1.0000
  I   I101      1.0  0.28835  0.16140  0.65350  1.0000
  I   I102      1.0  0.94451  0.30600  0.17230  1.0000
  I   I103      1.0  0.04701  0.89265  0.33231  1.0000
  I   I104      1.0  0.89675  0.91767  0.31808  1.0000
  I   I105      1.0  0.78909  0.99702  0.82751  1.0000
  I   I106      1.0  0.93538  0.66253  0.54095  1.0000
  I   I107      1.0  0.44410  0.83482  0.11715  1.0000
  I   I108      1.0  0.88325  0.71828  0.25095  1.0000
  I   I109      1.0  0.29930  0.01998  0.16909  1.0000
  I   I110      1.0  0.32389  0.34479  0.60311  1.0000
  I   I111      1.0  0.30848  0.21747  0.39321  1.0000
  I   I112      1.0  0.18211  0.40519  0.11327  1.0000
  I   I113      1.0  0.17023  0.68622  0.01676  1.0000
  I   I114      1.0  0.25583  0.72268  0.21832  1.0000
  I   I115      1.0  0.60428  0.72994  0.52744  1.0000
  I   I116      1.0  0.59842  0.72890  0.70973  1.0000
  I   I117      1.0  0.83567  0.74888  0.90084  1.0000
  I   I118      1.0  0.51953  0.91591  0.53369  1.0000
  I   I119      1.0  0.54239  0.93746  0.40891  1.0000
  I   I120      1.0  0.71392  0.95652  0.75019  1.0000
  I   I121      1.0  0.27806  0.57332  0.69499  1.0000
  I   I122      1.0  0.32932  0.25080  0.84468  1.0000
  I   I123      1.0  0.23810  0.35920  0.66479  1.0000
  I   I124      1.0  0.81313  0.49293  0.68182  1.0000
  I   I125      1.0  0.55463  0.53494  0.74492  1.0000
  I   I126      1.0  0.69981  0.46496  0.64082  1.0000
  I   I127      1.0  0.91491  0.39616  0.02608  1.0000
  I   I128      1.0  0.77849  0.38947  0.12897  1.0000
  I   I129      1.0  0.84697  0.29025  0.55045  1.0000
  I   I130      1.0  0.03748  0.55889  0.79144  1.0000
  I   I131      1.0  0.01467  0.74206  0.06704  1.0000
  I   I132      1.0  0.75391  0.57034  0.94898  1.0000
  I   I133      1.0  0.41629  0.49465  0.16831  1.0000
  I   I134      1.0  0.51801  0.29659  0.12506  1.0000
  I   I135      1.0  0.48490  0.40791  0.31630  1.0000
  I   I136      1.0  0.45177  0.80210  0.70737  1.0000
  I   I137      1.0  0.14047  0.95904  0.55418  1.0000
  I   I138      1.0  0.58772  0.28290  0.63742  1.0000
  I   I139      1.0  0.08345  0.43519  0.38663  1.0000
  I   I140      1.0  0.68783  0.30916  0.98160  1.0000
  I   I141      1.0  0.94957  0.46836  0.41484  1.0000
  I   I142      1.0  0.40533  0.33635  0.69900  1.0000
  I   I143      1.0  0.63215  0.15864  0.44740  1.0000
  I   I144      1.0  0.56153  0.07249  0.07185  1.0000
  I   I145      1.0  0.69237  0.70378  0.21159  1.0000
  I   I146      1.0  0.84472  0.07025  0.08768  1.0000
  I   I147      1.0  0.67035  0.78404  0.21207  1.0000
  I   I148      1.0  0.29219  0.09219  0.62676  1.0000
  I   I149      1.0  0.93683  0.20030  0.14672  1.0000
  I   I150      1.0  0.12900  0.32485  0.82346  1.0000
  I   I151      1.0  0.00322  0.84665  0.30802  1.0000
  I   I152      1.0  0.98708  0.15043  0.66479  1.0000
  I   I153      1.0  0.84067  0.96230  0.70244  1.0000
  I   I154      1.0  0.33444  0.88182  0.07728  1.0000
  I   I155      1.0  0.12625  0.56234  0.97313  1.0000
  I   I156      1.0  0.93886  0.69090  0.41114  1.0000
  I   I157      1.0  0.23087  0.08322  0.13447  1.0000
  I   I158      1.0  0.31121  0.19614  0.16938  1.0000
  I   I159      1.0  0.21407  0.11366  0.99127  1.0000
  I   I160      1.0  0.19807  0.45892  0.95836  1.0000
  I   I161      1.0  0.19589  0.73549  0.95003  1.0000
  I   I162      1.0  0.14210  0.44884  0.99260  1.0000
  I   I163      1.0  0.61616  0.67688  0.61219  1.0000
  I   I164      1.0  0.76133  0.78017  0.95267  1.0000
  I   I165      1.0  0.34493  0.39881  0.35913  1.0000
  I   I166      1.0  0.51316  0.98023  0.61366  1.0000
  I   I167      1.0  0.69391  0.91765  0.56403  1.0000
  I   I168      1.0  0.49037  0.85206  0.59223  1.0000
  I   I169      1.0  0.36294  0.25127  0.97584  1.0000
  I   I170      1.0  0.25387  0.30301  0.85705  1.0000
  I   I171      1.0  0.33493  0.52123  0.79267  1.0000
  I   I172      1.0  0.90836  0.43081  0.67185  1.0000
  I   I173      1.0  0.64296  0.44154  0.62651  1.0000
  I   I174      1.0  0.77636  0.41564  0.64951  1.0000
  I   I175      1.0  0.69595  0.44576  0.12199  1.0000
  I   I176      1.0  0.88046  0.31164  0.45050  1.0000
  I   I177      1.0  0.97074  0.33032  0.04526  1.0000
  I   I178      1.0  0.99866  0.78644  0.18315  1.0000
  I   I179      1.0  0.73635  0.63936  0.86365  1.0000
  I   I180      1.0  0.97378  0.56678  0.91858  1.0000
  I   I181      1.0  0.63906  0.27631  0.21354  1.0000
  I   I182      1.0  0.47492  0.36185  0.23862  1.0000
  I   I183      1.0  0.53266  0.47590  0.00663  1.0000
  I   I184      1.0  0.15972  0.04725  0.40696  1.0000
  I   I185      1.0  0.63284  0.32080  0.68202  1.0000
  I   I186      1.0  0.41569  0.68304  0.77210  1.0000
  I   I187      1.0  0.69817  0.24799  0.89976  1.0000
  I   I188      1.0  0.87509  0.49554  0.42789  1.0000
  I   I189      1.0  0.98849  0.49365  0.28711  1.0000
  I   I190      1.0  0.65423  0.07885  0.34500  1.0000
  I   I191      1.0  0.55501  0.06321  0.27657  1.0000
  I   I192      1.0  0.35836  0.36761  0.82042  1.0000
  I   I193      1.0  0.82214  0.56488  0.26289  1.0000
  I   I194      1.0  0.86806  0.00359  0.15638  1.0000
  I   I195      1.0  0.76069  0.71131  0.20259  1.0000
  I   I196      1.0  0.35966  0.13756  0.63104  1.0000
  I   I197      1.0  0.90269  0.33391  0.29118  1.0000
  I   I198      1.0  0.13920  0.27797  0.73762  1.0000
  I   I199      1.0  0.94127  0.86347  0.22542  1.0000
  I   I200      1.0  0.00732  0.02669  0.58632  1.0000
  I   I201      1.0  0.89290  0.84617  0.84103  1.0000
  I   I202      1.0  0.39277  0.81744  0.06292  1.0000
  I   I203      1.0  0.07622  0.62962  0.06458  1.0000
  I   I204      1.0  0.88729  0.65654  0.43732  1.0000
  I   I205      1.0  0.30247  0.29668  0.53720  1.0000
  I   I206      1.0  0.26640  0.25856  0.27839  1.0000
  I   I207      1.0  0.28119  0.09528  0.92458  1.0000
  I   I208      1.0  0.21130  0.60299  0.96919  1.0000
  I   I209      1.0  0.19798  0.79147  0.14704  1.0000
  I   I210      1.0  0.19780  0.46718  0.09879  1.0000
  I   I211      1.0  0.67400  0.67180  0.49269  1.0000
  I   I212      1.0  0.74288  0.78909  0.82921  1.0000
  I   I213      1.0  0.25478  0.46944  0.25436  1.0000
  I   I214      1.0  0.57700  0.94665  0.52321  1.0000
  I   I215      1.0  0.66432  0.92075  0.69735  1.0000
  I   I216      1.0  0.49962  0.86881  0.73901  1.0000
  I   I217      1.0  0.33397  0.20986  0.03541  1.0000
  I   I218      1.0  0.30022  0.33447  0.75945  1.0000
  I   I219      1.0  0.41089  0.43958  0.83627  1.0000
  I   I220      1.0  0.46976  0.59484  0.63937  1.0000
  I   I221      1.0  0.64544  0.43806  0.78069  1.0000
  I   I222      1.0  0.76706  0.48779  0.59879  1.0000
  I   I223      1.0  0.62681  0.44532  0.01371  1.0000
  I   I224      1.0  0.74947  0.29323  0.51154  1.0000
  I   I225      1.0  0.99813  0.36081  0.16004  1.0000
  I   I226      1.0  0.05901  0.77981  0.01822  1.0000
  I   I227      1.0  0.68307  0.70281  0.77696  1.0000
  I   I228      1.0  0.90021  0.59346  0.86748  1.0000
  I   I229      1.0  0.63182  0.25791  0.06254  1.0000
  I   I230      1.0  0.54127  0.34901  0.38935  1.0000
  I   I231      1.0  0.48257  0.48450  0.23477  1.0000
  I   I232      1.0  0.18424  0.97264  0.35941  1.0000
  I   I233      1.0  0.61866  0.18325  0.67907  1.0000
  I   I234      1.0  0.35673  0.74258  0.81594  1.0000
  I   I235      1.0  0.78641  0.18262  0.78948  1.0000
  I   I236      1.0  0.87530  0.44604  0.30945  1.0000
  I   I237      1.0  0.00517  0.49332  0.42587  1.0000
  I   I238      1.0  0.67316  0.13558  0.28364  1.0000
  I   I239      1.0  0.57772  0.09650  0.18411  1.0000
  I   I240      1.0  0.37840  0.29027  0.79451  1.0000
  I   I241      1.0  0.78598  0.64285  0.12255  1.0000
  I   I242      1.0  0.86853  0.07231  0.22372  1.0000
  I   I243      1.0  0.65831  0.74617  0.32314  1.0000
  I   I244      1.0  0.29168  0.15753  0.50349  1.0000
  I   I245      1.0  0.99084  0.22419  0.19487  1.0000
  I   I246      1.0  0.06038  0.33666  0.76520  1.0000
  I   I247      1.0  0.97521  0.91728  0.28290  1.0000
  I   I248      1.0  0.96490  0.09078  0.74318  1.0000
  I   I249      1.0  0.87257  0.87386  0.69535  1.0000
  I   I250      1.0  0.37669  0.85647  0.19648  1.0000
  I   I251      1.0  0.04403  0.58311  0.05036  1.0000
  I   I252      1.0  0.87497  0.72620  0.55100  1.0000
  I   I253      1.0  0.32686  0.34898  0.46435  1.0000
  I   I254      1.0  0.37218  0.16899  0.32136  1.0000
  I   I255      1.0  0.27087  0.03486  0.02700  1.0000
  I   I256      1.0  0.27186  0.58821  0.06393  1.0000
  I   I257      1.0  0.26689  0.76759  0.09993  1.0000
  I   I258      1.0  0.25078  0.32203  0.08450  1.0000
  I   I259      1.0  0.64252  0.74392  0.61255  1.0000
  I   I260      1.0  0.77682  0.83645  0.97668  1.0000
  I   I261      1.0  0.31262  0.47533  0.30774  1.0000
  I   I262      1.0  0.52798  0.01000  0.46566  1.0000
  I   I263      1.0  0.66202  0.98565  0.67560  1.0000
  I   I264      1.0  0.42026  0.90273  0.67961  1.0000
  I   I265      1.0  0.37499  0.18202  0.90704  1.0000
  I   I266      1.0  0.22266  0.38354  0.81439  1.0000
  I   I267      1.0  0.30642  0.50306  0.63120  1.0000
  I   I268      1.0  0.59716  0.57339  0.77550  1.0000
  I   I269      1.0  0.63207  0.50397  0.71861  1.0000
  I   I270      1.0  0.83857  0.42137  0.57906  1.0000
  I   I271      1.0  0.61807  0.48231  0.12307  1.0000
  I   I272      1.0  0.78799  0.31104  0.61492  1.0000
  I   I273      1.0  0.92823  0.41869  0.13544  1.0000
  I   I274      1.0  0.09082  0.74699  0.13820  1.0000
  I   I275      1.0  0.67092  0.64690  0.84669  1.0000
  I   I276      1.0  0.00510  0.51047  0.82703  1.0000
  I   I277      1.0  0.57988  0.32462  0.10611  1.0000
  I   I278      1.0  0.46279  0.35992  0.39786  1.0000
  I   I279      1.0  0.53949  0.43921  0.13921  1.0000
  I   I280      1.0  0.19843  0.91167  0.47264  1.0000
  I   I281      1.0  0.60686  0.24425  0.77529  1.0000
  I   I282      1.0  0.40534  0.81253  0.60499  1.0000
  I   I283      1.0  0.76917  0.26227  0.92104  1.0000
  I   I284      1.0  0.91814  0.41259  0.42963  1.0000
  I   I285      1.0  0.04557  0.52033  0.35993  1.0000
  I   I286      1.0  0.70079  0.10753  0.41402  1.0000
  I   I287      1.0  0.50354  0.09225  0.16823  1.0000
  I   I288      1.0  0.43775  0.33291  0.85151  1.0000
  I   I289      1.0  0.81136  0.63192  0.26706  1.0000
  I   I290      1.0  0.85419  0.97789  0.02911  1.0000
  I   I291      1.0  0.97532  0.04638  0.26113  1.0000
  I   I292      1.0  0.33940  0.10151  0.74460  1.0000
  I   I293      1.0  0.96350  0.17369  0.27165  1.0000
  I   I294      1.0  0.01017  0.28841  0.80768  1.0000
  I   I295      1.0  0.99419  0.92418  0.43111  1.0000
  I   I296      1.0  0.02508  0.06657  0.67938  1.0000
  I   I297      1.0  0.85921  0.98244  0.83360  1.0000
  I   I298      1.0  0.29888  0.85683  0.22623  1.0000
  I   I299      1.0  0.49551  0.79375  0.98077  1.0000
  I   I300      1.0  0.92350  0.64425  0.31461  1.0000
  I   I301      1.0  0.25891  0.12583  0.06987  1.0000
  I   I302      1.0  0.41294  0.31230  0.47322  1.0000
  I   I303      1.0  0.33782  0.23218  0.24088  1.0000
  I   I304      1.0  0.23897  0.38915  0.02347  1.0000
  I   I305      1.0  0.26013  0.71711  0.04094  1.0000
  I   I306      1.0  0.22231  0.75034  0.62366  1.0000
  I   I307      1.0  0.69254  0.66713  0.64293  1.0000
  I   I308      1.0  0.78037  0.83633  0.82369  1.0000
  I   I309      1.0  0.27105  0.46144  0.11624  1.0000
  I   I310      1.0  0.43986  0.00829  0.61560  1.0000
  I   I311      1.0  0.79476  0.90027  0.52477  1.0000
  I   I312      1.0  0.60136  0.02290  0.76915  1.0000
  I   I313      1.0  0.39948  0.41962  0.70958  1.0000
  I   I314      1.0  0.23753  0.24228  0.82668  1.0000
  I   I315      1.0  0.18365  0.42466  0.60784  1.0000
  I   I316      1.0  0.89307  0.44869  0.81023  1.0000
  I   I317      1.0  0.53732  0.57970  0.87715  1.0000
  I   I318      1.0  0.75466  0.39482  0.79006  1.0000
  I   I319      1.0  0.83628  0.46717  0.02017  1.0000
  I   I320      1.0  0.75088  0.33543  0.09750  1.0000
  I   I321      1.0  0.90734  0.23328  0.47254  1.0000
  I   I322      1.0  0.93954  0.76152  0.21575  1.0000
  I   I323      1.0  0.67706  0.59149  0.93465  1.0000
  I   I324      1.0  0.90392  0.64840  0.95785  1.0000
  I   I325      1.0  0.67512  0.18436  0.09584  1.0000
  I   I326      1.0  0.50812  0.29812  0.33026  1.0000
  I   I327      1.0  0.50307  0.51801  0.14694  1.0000
  I   I328      1.0  0.20629  0.94980  0.62253  1.0000
  I   I329      1.0  0.67529  0.24358  0.72015  1.0000
  I   I330      1.0  0.37354  0.83112  0.74977  1.0000
  I   I331      1.0  0.08747  0.51687  0.46399  1.0000
  I   I332      1.0  0.77121  0.20124  0.93642  1.0000
  I   I333      1.0  0.99093  0.43573  0.21992  1.0000
  I   I334      1.0  0.50846  0.28448  0.71399  1.0000
  I   I335      1.0  0.62076  0.10180  0.49077  1.0000
  I   I336      1.0  0.53796  0.01556  0.16764  1.0000
  I   I337      1.0  0.74417  0.68521  0.31068  1.0000
  I   I338      1.0  0.79848  0.01702  0.11676  1.0000
  I   I339      1.0  0.91835  0.06421  0.34268  1.0000
  I   I340      1.0  0.36497  0.08336  0.56869  1.0000
  I   I341      1.0  0.98980  0.28275  0.28747  1.0000
  I   I342      1.0  0.02366  0.33208  0.90429  1.0000
  I   I343      1.0  0.03464  0.85220  0.44117  1.0000
  I   I344      1.0  0.92383  0.14316  0.66024  1.0000
  I   I345      1.0  0.83814  0.92376  0.88187  1.0000
  I   I346      1.0  0.32108  0.80519  0.11821  1.0000
  I   I347      1.0  0.52097  0.82104  0.08820  1.0000
  I   I348      1.0  0.83395  0.69500  0.33182  1.0000
  I   I349      1.0  0.29193  0.09747  0.18448  1.0000
  I   I350      1.0  0.43821  0.24757  0.37855  1.0000
  I   I351      1.0  0.37722  0.12365  0.20264  1.0000
  I   I352      1.0  0.21864  0.35657  0.20970  1.0000
  I   I353      1.0  0.23525  0.66094  0.10373  1.0000
  I   I354      1.0  0.19151  0.82447  0.54160  1.0000
  I   I355      1.0  0.56405  0.79573  0.62779  1.0000
  I   I356      1.0  0.85769  0.78820  0.97083  1.0000
  I   I357      1.0  0.35034  0.42139  0.20233  1.0000
  I   I358      1.0  0.45368  0.93054  0.57240  1.0000
  I   I359      1.0  0.75850  0.87089  0.45295  1.0000
  I   I360      1.0  0.67175  0.03090  0.80099  1.0000
  I   I361      1.0  0.33333  0.45504  0.81419  1.0000
  I   I362      1.0  0.30923  0.20210  0.76438  1.0000
  I   I363      1.0  0.13180  0.40330  0.70981  1.0000
  I   I364      1.0  0.87051  0.50757  0.71711  1.0000
  I   I365      1.0  0.47231  0.66959  0.64142  1.0000
  I   I366      1.0  0.69651  0.46187  0.79431  1.0000
  I   I367      1.0  0.85968  0.44970  0.15459  1.0000
  I   I368      1.0  0.69866  0.39848  0.02892  1.0000
  I   I369      1.0  0.85628  0.27788  0.35915  1.0000
  I   I370      1.0  0.93382  0.77054  0.06542  1.0000
  I   I371      1.0  0.68861  0.65376  0.99114  1.0000
  I   I372      1.0  0.89091  0.65676  0.81504  1.0000
  I   I373      1.0  0.69219  0.24674  0.12327  1.0000
  I   I374      1.0  0.52896  0.24454  0.23987  1.0000
  I   I375      1.0  0.47492  0.44791  0.06770  1.0000
  I   I376      1.0  0.22464  0.96527  0.48025  1.0000
  I   I377      1.0  0.67915  0.16679  0.74069  1.0000
  I   I378      1.0  0.39756  0.74801  0.69606  1.0000
  I   I379      1.0  0.05003  0.47575  0.54037  1.0000
  I   I380      1.0  0.74546  0.26019  0.05885  1.0000
  I   I381      1.0  0.95828  0.41309  0.32074  1.0000
  I   I382      1.0  0.50985  0.27109  0.87346  1.0000
  I   I383      1.0  0.66550  0.11886  0.58033  1.0000
  I   I384      1.0  0.54164  0.02120  0.01380  1.0000
