data_image0
_chemical_formula_structural       Ti96I384
_chemical_formula_sum              "Ti96 I384"
_cell_length_a       80.785
_cell_length_b       80.224
_cell_length_c       39.2368
_cell_angle_alpha    88.7757
_cell_angle_beta     88.7757
_cell_angle_gamma    62.1586

_space_group_name_H-M_alt    "P 1"
_space_group_IT_number       1

loop_
  _space_group_symop_operation_xyz
  'x, y, z'

loop_
  _atom_site_type_symbol
  _atom_site_label
  _atom_site_symmetry_multiplicity
  _atom_site_fract_x
  _atom_site_fract_y
  _atom_site_fract_z
  _atom_site_occupancy
  Ti  Ti1       1.0  0.70528  0.50089  0.39995  1.0000
  Ti  Ti2       1.0  0.70599  0.06925  0.59206  1.0000
  Ti  Ti3       1.0  0.94224  0.02378  0.17095  1.0000
  Ti  Ti4       1.0  0.41283  0.87167  0.94802  1.0000
  Ti  Ti5       1.0  0.91394  0.47278  0.61203  1.0000
  Ti  Ti6       1.0  0.17284  0.87539  0.64419  1.0000
  Ti  Ti7       1.0  0.33105  0.40312  0.86097  1.0000
  Ti  Ti8       1.0  0.40729  0.60092  0.10980  1.0000
  Ti  Ti9       1.0  0.97582  0.17689  0.74584  1.0000
  Ti  Ti10      1.0  0.91717  0.28085  0.04787  1.0000
  Ti  Ti11      1.0  0.29657  0.78789  0.63185  1.0000
  Ti  Ti12      1.0  0.52870  0.89776  0.45319  1.0000
  Ti  Ti13      1.0  0.56062  0.52556  0.36291  1.0000
  Ti  Ti14      1.0  0.46144  0.83067  0.92089  1.0000
  Ti  Ti15      1.0  0.66096  0.27335  0.81109  1.0000
  Ti  Ti16      1.0  0.84866  0.67025  0.01796  1.0000
  Ti  Ti17      1.0  0.57193  0.02260  0.54482  1.0000
  Ti  Ti18      1.0  0.51799  0.43382  0.43906  1.0000
  Ti  Ti19      1.0  0.67683  0.20475  0.13414  1.0000
  Ti  Ti20      1.0  0.57645  0.79434  0.37404  1.0000
  Ti  Ti21      1.0  0.31564  0.58129  0.68375  1.0000
  Ti  Ti22      1.0  0.46058  0.19790  0.04134  1.0000
  Ti  Ti23      1.0  0.44525  0.11722  0.91522  1.0000
  Ti  Ti24      1.0  0.85258  0.41676  0.58010  1.0000
  Ti  Ti25      1.0  0.94365  0.01163  0.88221  1.0000
  Ti  Ti26      1.0  0.27964  0.67898  0.16518  1.0000
  Ti  Ti27      1.0  0.92932  0.78867  0.52970  1.0000
  Ti  Ti28      1.0  0.30071  0.20322  0.03961  1.0000
  Ti  Ti29      1.0  0.90648  0.69083  0.32630  1.0000
  Ti  Ti30      1.0  0.42116  0.61572  0.77691  1.0000
  Ti  Ti31      1.0  0.82914  0.91566  0.38797  1.0000
  Ti  Ti32      1.0  0.05179  0.28767  0.78861  1.0000
  Ti  Ti33      1.0  0.82857  0.25277  0.38394  1.0000
  Ti  Ti34      1.0  0.62810  0.67583  0.82581  1.0000
  Ti  Ti35      1.0  0.30254  0.06713  0.02614  1.0000
  Ti  Ti36      1.0  0.20872  0.84028  0.98526  1.0000
  Ti  Ti37      1.0  0.23843  0.92898  0.97582  1.0000
  Ti  Ti38      1.0  0.51040  0.62902  0.66660  1.0000
  Ti  Ti39      1.0  0.86513  0.30065  0.99461  1.0000
  Ti  Ti40      1.0  0.54394  0.08500  0.10726  1.0000
  Ti  Ti41      1.0  0.36447  0.88624  0.56178  1.0000
  Ti  Ti42      1.0  0.38737  0.45682  0.72514  1.0000
  Ti  Ti43      1.0  0.36743  0.58712  0.29761  1.0000
  Ti  Ti44      1.0  0.41302  0.48406  0.20992  1.0000
  Ti  Ti45      1.0  0.83293  0.14559  0.26903  1.0000
  Ti  Ti46      1.0  0.62048  0.84584  0.49941  1.0000
  Ti  Ti47      1.0  0.15469  0.60698  0.55705  1.0000
  Ti  Ti48      1.0  0.46274  0.95433  0.97740  1.0000
  Ti  Ti49      1.0  0.44695  0.00075  0.32862  1.0000
  Ti  Ti50      1.0  0.15948  0.31078  0.59030  1.0000
  Ti  Ti51      1.0  0.51654  0.00806  0.89560  1.0000
  Ti  Ti52      1.0  0.85192  0.48272  0.39761  1.0000
  Ti  Ti53      1.0  0.66159  0.34906  0.84106  1.0000
  Ti  Ti54      1.0  0.77276  0.96677  0.57347  1.0000
  Ti  Ti55      1.0  0.04113  0.73206  0.00820  1.0000
  Ti  Ti56      1.0  0.73354  0.09791  0.78846  1.0000
  Ti  Ti57      1.0  0.95329  0.17016  0.80789  1.0000
  Ti  Ti58      1.0  0.99845  0.81013  0.13372  1.0000
  Ti  Ti59      1.0  0.84005  0.62948  0.96393  1.0000
  Ti  Ti60      1.0  0.65701  0.18678  0.07255  1.0000
  Ti  Ti61      1.0  0.60450  0.23574  0.36434  1.0000
  Ti  Ti62      1.0  0.56218  0.49955  0.43733  1.0000
  Ti  Ti63      1.0  0.24617  0.64620  0.52304  1.0000
  Ti  Ti64      1.0  0.55458  0.39123  0.47515  1.0000
  Ti  Ti65      1.0  0.35671  0.06994  0.44580  1.0000
  Ti  Ti66      1.0  0.12549  0.07343  0.00110  1.0000
  Ti  Ti67      1.0  0.72358  0.79799  0.68277  1.0000
  Ti  Ti68      1.0  0.21235  0.53186  0.06642  1.0000
  Ti  Ti69      1.0  0.26955  0.72450  0.16860  1.0000
  Ti  Ti70      1.0  0.19302  0.86460  0.44281  1.0000
  Ti  Ti71      1.0  0.83107  0.44113  0.09519  1.0000
  Ti  Ti72      1.0  0.31524  0.17931  0.68188  1.0000
  Ti  Ti73      1.0  0.29537  0.68365  0.39056  1.0000
  Ti  Ti74      1.0  0.92270  0.00715  0.95865  1.0000
  Ti  Ti75      1.0  0.44231  0.02393  0.26477  1.0000
  Ti  Ti76      1.0  0.72693  0.62680  0.30864  1.0000
  Ti  Ti77      1.0  0.61361  0.29520  0.76050  1.0000
  Ti  Ti78      1.0  0.93597  0.56683  0.51826  1.0000
  Ti  Ti79      1.0  0.91168  0.96195  0.57094  1.0000
  Ti  Ti80      1.0  0.08980  0.47696  0.09595  1.0000
  Ti  Ti81      1.0  0.62143  0.25313  0.96032  1.0000
  Ti  Ti82      1.0  0.37196  0.71107  0.12796  1.0000
  Ti  Ti83      1.0  0.84322  0.12758  0.20785  1.0000
  Ti  Ti84      1.0  0.20815  0.87565  0.95923  1.0000
  Ti  Ti85      1.0  0.23152  0.94171  0.05685  1.0000
  Ti  Ti86      1.0  0.32197  0.37061  0.94275  1.0000
  Ti  Ti87      1.0  0.88239  0.79480  0.80418  1.0000
  Ti  Ti88      1.0  0.76849  0.18594  0.87108  1.0000
  Ti  Ti89      1.0  0.90470  0.05755  0.70659  1.0000
  Ti  Ti90      1.0  0.58720  0.96227  0.53983  1.0000
  Ti  Ti91      1.0  0.61458  0.31501  0.25352  1.0000
  Ti  Ti92      1.0  0.79326  0.34823  0.14284  1.0000
  Ti  Ti93      1.0  0.46843  0.84668  0.61448  1.0000
  Ti  Ti94      1.0  0.46428  0.95896  0.04902  1.0000
  Ti  Ti95      1.0  0.35922  0.82389  0.83333  1.0000
  Ti  Ti96      1.0  0.01593  0.12567  0.97929  1.0000
  I   I1        1.0  0.15401  0.62775  0.50618  1.0000
  I   I2        1.0  0.52875  0.97491  0.93661  1.0000
  I   I3        1.0  0.43226  0.99527  0.27371  1.0000
  I   I4        1.0  0.64411  0.36819  0.78095  1.0000
  I   I5        1.0  0.15765  0.86160  0.69608  1.0000
  I   I6        1.0  0.76092  0.00230  0.57047  1.0000
  I   I7        1.0  0.43623  0.59620  0.15353  1.0000
  I   I8        1.0  0.75106  0.09260  0.84486  1.0000
  I   I9        1.0  0.98971  0.14933  0.80104  1.0000
  I   I10       1.0  0.52895  0.06836  0.07104  1.0000
  I   I11       1.0  0.29860  0.75611  0.64741  1.0000
  I   I12       1.0  0.88560  0.47324  0.57480  1.0000
  I   I13       1.0  0.52927  0.55449  0.33855  1.0000
  I   I14       1.0  0.26945  0.61322  0.55882  1.0000
  I   I15       1.0  0.61852  0.32272  0.74576  1.0000
  I   I16       1.0  0.52136  0.09212  0.16003  1.0000
  I   I17       1.0  0.14411  0.03777  0.97016  1.0000
  I   I18       1.0  0.56369  0.37667  0.53732  1.0000
  I   I19       1.0  0.24899  0.67492  0.53542  1.0000
  I   I20       1.0  0.32679  0.77488  0.67828  1.0000
  I   I21       1.0  0.38155  0.59614  0.13444  1.0000
  I   I22       1.0  0.65598  0.25233  0.97561  1.0000
  I   I23       1.0  0.77637  0.21298  0.84371  1.0000
  I   I24       1.0  0.15575  0.88905  0.43403  1.0000
  I   I25       1.0  0.91836  0.99850  0.87961  1.0000
  I   I26       1.0  0.45285  0.03171  0.34127  1.0000
  I   I27       1.0  0.31274  0.03710  0.98189  1.0000
  I   I28       1.0  0.28327  0.24288  0.03936  1.0000
  I   I29       1.0  0.90936  0.56017  0.49606  1.0000
  I   I30       1.0  0.43084  0.60763  0.71199  1.0000
  I   I31       1.0  0.10768  0.45861  0.15290  1.0000
  I   I32       1.0  0.61002  0.22884  0.97751  1.0000
  I   I33       1.0  0.92584  0.97501  0.61834  1.0000
  I   I34       1.0  0.33319  0.05301  0.06043  1.0000
  I   I35       1.0  0.21551  0.86954  0.89076  1.0000
  I   I36       1.0  0.59403  0.68234  0.79199  1.0000
  I   I37       1.0  0.23301  0.95303  0.92261  1.0000
  I   I38       1.0  0.90164  0.28658  0.97300  1.0000
  I   I39       1.0  0.23389  0.92645  0.11529  1.0000
  I   I40       1.0  0.37512  0.49612  0.20818  1.0000
  I   I41       1.0  0.19611  0.29612  0.59895  1.0000
  I   I42       1.0  0.53204  0.11822  0.08009  1.0000
  I   I43       1.0  0.97520  0.80369  0.09649  1.0000
  I   I44       1.0  0.80648  0.17833  0.28922  1.0000
  I   I45       1.0  0.86146  0.10746  0.27711  1.0000
  I   I46       1.0  0.39091  0.82226  0.85091  1.0000
  I   I47       1.0  0.16321  0.62700  0.59750  1.0000
  I   I48       1.0  0.43114  0.96418  0.01355  1.0000
  I   I49       1.0  0.47628  0.99462  0.27535  1.0000
  I   I50       1.0  0.73842  0.06132  0.56979  1.0000
  I   I51       1.0  0.52781  0.03142  0.91950  1.0000
  I   I52       1.0  0.05715  0.48118  0.10305  1.0000
  I   I53       1.0  0.61995  0.36184  0.84411  1.0000
  I   I54       1.0  0.74733  0.95671  0.59346  1.0000
  I   I55       1.0  0.32605  0.34471  0.89976  1.0000
  I   I56       1.0  0.31632  0.56294  0.74163  1.0000
  I   I57       1.0  0.36183  0.80579  0.89407  1.0000
  I   I58       1.0  0.93089  0.24642  0.02536  1.0000
  I   I59       1.0  0.83061  0.61137  0.01766  1.0000
  I   I60       1.0  0.62926  0.18748  0.04768  1.0000
  I   I61       1.0  0.57539  0.46194  0.45751  1.0000
  I   I62       1.0  0.57194  0.55157  0.37011  1.0000
  I   I63       1.0  0.59564  0.77274  0.32310  1.0000
  I   I64       1.0  0.86231  0.63418  0.01782  1.0000
  I   I65       1.0  0.58016  0.06973  0.11317  1.0000
  I   I66       1.0  0.28311  0.20642  0.98497  1.0000
  I   I67       1.0  0.65317  0.22593  0.08263  1.0000
  I   I68       1.0  0.59492  0.78790  0.43287  1.0000
  I   I69       1.0  0.24151  0.70403  0.17420  1.0000
  I   I70       1.0  0.20291  0.88528  0.48426  1.0000
  I   I71       1.0  0.45364  0.11665  0.85248  1.0000
  I   I72       1.0  0.30547  0.21311  0.66115  1.0000
  I   I73       1.0  0.89690  0.82139  0.52845  1.0000
  I   I74       1.0  0.26427  0.71158  0.10598  1.0000
  I   I75       1.0  0.29322  0.74048  0.16324  1.0000
  I   I76       1.0  0.57768  0.31858  0.77661  1.0000
  I   I77       1.0  0.62315  0.28388  0.83968  1.0000
  I   I78       1.0  0.82337  0.94863  0.36405  1.0000
  I   I79       1.0  0.83050  0.28208  0.36307  1.0000
  I   I80       1.0  0.71175  0.51143  0.34058  1.0000
  I   I81       1.0  0.03356  0.29459  0.72690  1.0000
  I   I82       1.0  0.36595  0.74537  0.10245  1.0000
  I   I83       1.0  0.86397  0.14193  0.22439  1.0000
  I   I84       1.0  0.20588  0.87295  0.02950  1.0000
  I   I85       1.0  0.25868  0.94957  0.04896  1.0000
  I   I86       1.0  0.29239  0.18921  0.09408  1.0000
  I   I87       1.0  0.84799  0.30992  0.93398  1.0000
  I   I88       1.0  0.87833  0.30818  0.05750  1.0000
  I   I89       1.0  0.65486  0.68037  0.80139  1.0000
  I   I90       1.0  0.13764  0.31287  0.54012  1.0000
  I   I91       1.0  0.62464  0.33600  0.21935  1.0000
  I   I92       1.0  0.82820  0.33313  0.12379  1.0000
  I   I93       1.0  0.43179  0.44845  0.21789  1.0000
  I   I94       1.0  0.49767  0.94155  0.01375  1.0000
  I   I95       1.0  0.60901  0.86572  0.44626  1.0000
  I   I96       1.0  0.45914  0.17176  0.00218  1.0000
  I   I97       1.0  0.91544  0.03892  0.13236  1.0000
  I   I98       1.0  0.72036  0.51406  0.44233  1.0000
  I   I99       1.0  0.72058  0.05315  0.65290  1.0000
  I   I100      1.0  0.49149  0.79532  0.91751  1.0000
  I   I101      1.0  0.76114  0.17784  0.81060  1.0000
  I   I102      1.0  0.93243  0.48399  0.56805  1.0000
  I   I103      1.0  0.34918  0.35529  0.98781  1.0000
  I   I104      1.0  0.00044  0.74734  0.02555  1.0000
  I   I105      1.0  0.33743  0.91301  0.59387  1.0000
  I   I106      1.0  0.55566  0.90705  0.47120  1.0000
  I   I107      1.0  0.86775  0.26701  0.99633  1.0000
  I   I108      1.0  0.51688  0.91773  0.39665  1.0000
  I   I109      1.0  0.69457  0.25247  0.83199  1.0000
  I   I110      1.0  0.56641  0.50055  0.50228  1.0000
  I   I111      1.0  0.58344  0.82396  0.36281  1.0000
  I   I112      1.0  0.51530  0.41178  0.49548  1.0000
  I   I113      1.0  0.38435  0.06780  0.48443  1.0000
  I   I114      1.0  0.57490  0.04991  0.57120  1.0000
  I   I115      1.0  0.71775  0.77655  0.64619  1.0000
  I   I116      1.0  0.69948  0.83241  0.66050  1.0000
  I   I117      1.0  0.18931  0.54331  0.01548  1.0000
  I   I118      1.0  0.99202  0.12975  0.92829  1.0000
  I   I119      1.0  0.70751  0.79190  0.73626  1.0000
  I   I120      1.0  0.17837  0.57372  0.52965  1.0000
  I   I121      1.0  0.28713  0.67797  0.32815  1.0000
  I   I122      1.0  0.93801  0.02874  0.82415  1.0000
  I   I123      1.0  0.44483  0.02010  0.19845  1.0000
  I   I124      1.0  0.41563  0.64941  0.77922  1.0000
  I   I125      1.0  0.73445  0.65773  0.30476  1.0000
  I   I126      1.0  0.94815  0.54559  0.57273  1.0000
  I   I127      1.0  0.81782  0.23498  0.33915  1.0000
  I   I128      1.0  0.46818  0.81764  0.99013  1.0000
  I   I129      1.0  0.41855  0.11187  0.93449  1.0000
  I   I130      1.0  0.23521  0.80653  0.97150  1.0000
  I   I131      1.0  0.35131  0.72873  0.18415  1.0000
  I   I132      1.0  0.28819  0.10357  0.01056  1.0000
  I   I133      1.0  0.95040  0.27984  0.03135  1.0000
  I   I134      1.0  0.50195  0.66808  0.65248  1.0000
  I   I135      1.0  0.09916  0.09558  0.04242  1.0000
  I   I136      1.0  0.42045  0.43799  0.73938  1.0000
  I   I137      1.0  0.83670  0.49507  0.45921  1.0000
  I   I138      1.0  0.92953  0.06458  0.67874  1.0000
  I   I139      1.0  0.64295  0.29767  0.29341  1.0000
  I   I140      1.0  0.78297  0.33270  0.09179  1.0000
  I   I141      1.0  0.50008  0.83376  0.59004  1.0000
  I   I142      1.0  0.45850  0.93732  0.09250  1.0000
  I   I143      1.0  0.94576  0.05587  0.18558  1.0000
  I   I144      1.0  0.47717  0.21378  0.00737  1.0000
  I   I145      1.0  0.67697  0.50938  0.43938  1.0000
  I   I146      1.0  0.68958  0.05610  0.55270  1.0000
  I   I147      1.0  0.97451  0.02399  0.14123  1.0000
  I   I148      1.0  0.85059  0.45224  0.37379  1.0000
  I   I149      1.0  0.93575  0.43653  0.60289  1.0000
  I   I150      1.0  0.20775  0.86411  0.64290  1.0000
  I   I151      1.0  0.06798  0.74018  0.00580  1.0000
  I   I152      1.0  0.39355  0.62481  0.05931  1.0000
  I   I153      1.0  0.98449  0.19941  0.71158  1.0000
  I   I154      1.0  0.38812  0.59843  0.26149  1.0000
  I   I155      1.0  0.27425  0.80555  0.68678  1.0000
  I   I156      1.0  0.68219  0.15252  0.04181  1.0000
  I   I157      1.0  0.64230  0.25516  0.77686  1.0000
  I   I158      1.0  0.21743  0.64529  0.55627  1.0000
  I   I159      1.0  0.63185  0.23408  0.40525  1.0000
  I   I160      1.0  0.58926  0.36831  0.45971  1.0000
  I   I161      1.0  0.57554  0.93793  0.57215  1.0000
  I   I162      1.0  0.48701  0.43817  0.41278  1.0000
  I   I163      1.0  0.64973  0.19074  0.14803  1.0000
  I   I164      1.0  0.64931  0.81626  0.47989  1.0000
  I   I165      1.0  0.34278  0.55933  0.64006  1.0000
  I   I166      1.0  0.01222  0.15905  0.99173  1.0000
  I   I167      1.0  0.59353  0.27637  0.92725  1.0000
  I   I168      1.0  0.86798  0.38251  0.60463  1.0000
  I   I169      1.0  0.88467  0.02711  0.95418  1.0000
  I   I170      1.0  0.96475  0.00959  0.93937  1.0000
  I   I171      1.0  0.92687  0.78261  0.59131  1.0000
  I   I172      1.0  0.73961  0.61903  0.24857  1.0000
  I   I173      1.0  0.90646  0.71434  0.37368  1.0000
  I   I174      1.0  0.40362  0.59680  0.81214  1.0000
  I   I175      1.0  0.84363  0.89816  0.33015  1.0000
  I   I176      1.0  0.05316  0.31995  0.80894  1.0000
  I   I177      1.0  0.87458  0.98074  0.55997  1.0000
  I   I178      1.0  0.38807  0.68660  0.18282  1.0000
  I   I179      1.0  0.85065  0.14967  0.32492  1.0000
  I   I180      1.0  0.22830  0.90914  0.93732  1.0000
  I   I181      1.0  0.54636  0.87047  0.41130  1.0000
  I   I182      1.0  0.35863  0.39995  0.82139  1.0000
  I   I183      1.0  0.87046  0.81914  0.85245  1.0000
  I   I184      1.0  0.79327  0.15582  0.90083  1.0000
  I   I185      1.0  0.90856  0.02978  0.67038  1.0000
  I   I186      1.0  0.37241  0.49662  0.72859  1.0000
  I   I187      1.0  0.77242  0.38278  0.12084  1.0000
  I   I188      1.0  0.43553  0.49368  0.16935  1.0000
  I   I189      1.0  0.90036  0.79327  0.74171  1.0000
  I   I190      1.0  0.60099  0.82835  0.51947  1.0000
  I   I191      1.0  0.60623  0.00742  0.52844  1.0000
  I   I192      1.0  0.94615  0.98885  0.18695  1.0000
  I   I193      1.0  0.95989  0.56432  0.47001  1.0000
  I   I194      1.0  0.54927  0.78929  0.38766  1.0000
  I   I195      1.0  0.94675  0.02321  0.24263  1.0000
  I   I196      1.0  0.40363  0.89643  0.00627  1.0000
  I   I197      1.0  0.02150  0.78827  0.18508  1.0000
  I   I198      1.0  0.16912  0.88276  0.57791  1.0000
  I   I199      1.0  0.05232  0.27613  0.85156  1.0000
  I   I200      1.0  0.72697  0.11000  0.72119  1.0000
  I   I201      1.0  0.92679  0.19705  0.84813  1.0000
  I   I202      1.0  0.84563  0.66957  0.08706  1.0000
  I   I203      1.0  0.28609  0.66790  0.10142  1.0000
  I   I204      1.0  0.53067  0.86804  0.49767  1.0000
  I   I205      1.0  0.55072  0.49459  0.37342  1.0000
  I   I206      1.0  0.46019  0.83969  0.85798  1.0000
  I   I207      1.0  0.66902  0.28088  0.75112  1.0000
  I   I208      1.0  0.87427  0.66891  0.96937  1.0000
  I   I209      1.0  0.60580  0.93494  0.48792  1.0000
  I   I210      1.0  0.92226  0.93082  0.53107  1.0000
  I   I211      1.0  0.20630  0.86894  0.38750  1.0000
  I   I212      1.0  0.27146  0.63402  0.47636  1.0000
  I   I213      1.0  0.24529  0.75769  0.17527  1.0000
  I   I214      1.0  0.48201  0.17357  0.08583  1.0000
  I   I215      1.0  0.43149  0.15566  0.93363  1.0000
  I   I216      1.0  0.44350  0.87103  0.57073  1.0000
  I   I217      1.0  0.97743  0.98472  0.86195  1.0000
  I   I218      1.0  0.45631  0.04985  0.24457  1.0000
  I   I219      1.0  0.31425  0.70210  0.39204  1.0000
  I   I220      1.0  0.59886  0.28528  0.71080  1.0000
  I   I221      1.0  0.91600  0.70007  0.26905  1.0000
  I   I222      1.0  0.75759  0.60164  0.34221  1.0000
  I   I223      1.0  0.82792  0.92717  0.44808  1.0000
  I   I224      1.0  0.08330  0.25821  0.77147  1.0000
  I   I225      1.0  0.84962  0.22714  0.42943  1.0000
  I   I226      1.0  0.34503  0.71146  0.08054  1.0000
  I   I227      1.0  0.27379  0.06519  0.05266  1.0000
  I   I228      1.0  0.17984  0.86775  0.94897  1.0000
  I   I229      1.0  0.96864  0.83861  0.16032  1.0000
  I   I230      1.0  0.47564  0.64723  0.68516  1.0000
  I   I231      1.0  0.90623  0.26941  0.10201  1.0000
  I   I232      1.0  0.42841  0.83200  0.93398  1.0000
  I   I233      1.0  0.39126  0.87147  0.60236  1.0000
  I   I234      1.0  0.54536  0.04282  0.50118  1.0000
  I   I235      1.0  0.39298  0.56336  0.34115  1.0000
  I   I236      1.0  0.46707  0.84659  0.68226  1.0000
  I   I237      1.0  0.60766  0.29250  0.21459  1.0000
  I   I238      1.0  0.33821  0.85821  0.84560  1.0000
  I   I239      1.0  0.04686  0.09723  0.99620  1.0000
  I   I240      1.0  0.46150  0.98960  0.99795  1.0000
  I   I241      1.0  0.72498  0.46543  0.40340  1.0000
  I   I242      1.0  0.67953  0.10293  0.58012  1.0000
  I   I243      1.0  0.21089  0.55833  0.10625  1.0000
  I   I244      1.0  0.74636  0.20157  0.92157  1.0000
  I   I245      1.0  0.69702  0.33270  0.82820  1.0000
  I   I246      1.0  0.15948  0.90969  0.66872  1.0000
  I   I247      1.0  0.31091  0.42262  0.80337  1.0000
  I   I248      1.0  0.28643  0.58827  0.65040  1.0000
  I   I249      1.0  0.00624  0.15151  0.70578  1.0000
  I   I250      1.0  0.81317  0.63479  0.91653  1.0000
  I   I251      1.0  0.26063  0.81782  0.61022  1.0000
  I   I252      1.0  0.69987  0.17253  0.10422  1.0000
  I   I253      1.0  0.59239  0.49648  0.40449  1.0000
  I   I254      1.0  0.38776  0.90029  0.90701  1.0000
  I   I255      1.0  0.59233  0.24631  0.29738  1.0000
  I   I256      1.0  0.32173  0.09121  0.45049  1.0000
  I   I257      1.0  0.27742  0.90924  0.96631  1.0000
  I   I258      1.0  0.54055  0.39599  0.39548  1.0000
  I   I259      1.0  0.75374  0.80300  0.66856  1.0000
  I   I260      1.0  0.63434  0.85908  0.54468  1.0000
  I   I261      1.0  0.31468  0.61539  0.67995  1.0000
  I   I262      1.0  0.43227  0.21119  0.08178  1.0000
  I   I263      1.0  0.84002  0.40729  0.06833  1.0000
  I   I264      1.0  0.19737  0.83221  0.04592  1.0000
  I   I265      1.0  0.92104  0.97943  0.99204  1.0000
  I   I266      1.0  0.28453  0.64856  0.19103  1.0000
  I   I267      1.0  0.31841  0.64975  0.39850  1.0000
  I   I268      1.0  0.14147  0.09179  0.96747  1.0000
  I   I269      1.0  0.92163  0.60118  0.53432  1.0000
  I   I270      1.0  0.33530  0.18976  0.01907  1.0000
  I   I271      1.0  0.79839  0.91288  0.39777  1.0000
  I   I272      1.0  0.63658  0.23403  0.90189  1.0000
  I   I273      1.0  0.80102  0.26235  0.42406  1.0000
  I   I274      1.0  0.38683  0.89943  0.51851  1.0000
  I   I275      1.0  0.93492  0.77016  0.47624  1.0000
  I   I276      1.0  0.18224  0.91082  0.95508  1.0000
  I   I277      1.0  0.38638  0.68156  0.08896  1.0000
  I   I278      1.0  0.50336  0.60926  0.61627  1.0000
  I   I279      1.0  0.41114  0.49557  0.27698  1.0000
  I   I280      1.0  0.83468  0.51800  0.37194  1.0000
  I   I281      1.0  0.37641  0.85997  0.51293  1.0000
  I   I282      1.0  0.35899  0.45398  0.76695  1.0000
  I   I283      1.0  0.35135  0.61207  0.34289  1.0000
  I   I284      1.0  0.82518  0.41527  0.55515  1.0000
  I   I285      1.0  0.86841  0.77054  0.79303  1.0000
  I   I286      1.0  0.35145  0.81440  0.77204  1.0000
  I   I287      1.0  0.28576  0.17455  0.68896  1.0000
  I   I288      1.0  0.46483  0.92090  0.98217  1.0000
  I   I289      1.0  0.33950  0.59573  0.26123  1.0000
  I   I290      1.0  0.61624  0.94684  0.57771  1.0000
  I   I291      1.0  0.48232  0.01773  0.90018  1.0000
  I   I292      1.0  0.88821  0.46591  0.40876  1.0000
  I   I293      1.0  0.64871  0.37562  0.88654  1.0000
  I   I294      1.0  0.80348  0.94613  0.60314  1.0000
  I   I295      1.0  0.35350  0.37105  0.89356  1.0000
  I   I296      1.0  0.75640  0.06513  0.75985  1.0000
  I   I297      1.0  0.93560  0.19445  0.75248  1.0000
  I   I298      1.0  0.02318  0.79722  0.07687  1.0000
  I   I299      1.0  0.86298  0.59870  0.92949  1.0000
  I   I300      1.0  0.45078  0.82386  0.61595  1.0000
  I   I301      1.0  0.57812  0.23162  0.40242  1.0000
  I   I302      1.0  0.54125  0.53690  0.44237  1.0000
  I   I303      1.0  0.35556  0.03600  0.42167  1.0000
  I   I304      1.0  0.56137  0.42092  0.45158  1.0000
  I   I305      1.0  0.82734  0.70592  0.01066  1.0000
  I   I306      1.0  0.33180  0.43721  0.86685  1.0000
  I   I307      1.0  0.20729  0.94742  0.01017  1.0000
  I   I308      1.0  0.14980  0.29388  0.63776  1.0000
  I   I309      1.0  0.42570  0.56836  0.07109  1.0000
  I   I310      1.0  0.42664  0.98597  0.36237  1.0000
  I   I311      1.0  0.85756  0.44677  0.06416  1.0000
  I   I312      1.0  0.12812  0.59877  0.57463  1.0000
  I   I313      1.0  0.26853  0.70293  0.44013  1.0000
  I   I314      1.0  0.92058  0.04282  0.91003  1.0000
  I   I315      1.0  0.40836  0.04912  0.27088  1.0000
  I   I316      1.0  0.69676  0.64445  0.33650  1.0000
  I   I317      1.0  0.09789  0.06791  0.97840  1.0000
  I   I318      1.0  0.93912  0.66522  0.34121  1.0000
  I   I319      1.0  0.92239  0.98844  0.55292  1.0000
  I   I320      1.0  0.38205  0.86428  0.96203  1.0000
  I   I321      1.0  0.04163  0.70869  0.95779  1.0000
  I   I322      1.0  0.62587  0.69868  0.87678  1.0000
  I   I323      1.0  0.81162  0.16242  0.20948  1.0000
  I   I324      1.0  0.24412  0.84583  0.96774  1.0000
  I   I325      1.0  0.24333  0.89891  0.02093  1.0000
  I   I326      1.0  0.30006  0.40040  0.89286  1.0000
  I   I327      1.0  0.84733  0.09201  0.18520  1.0000
  I   I328      1.0  0.84177  0.34012  0.99816  1.0000
  I   I329      1.0  0.87371  0.09180  0.68564  1.0000
  I   I330      1.0  0.58571  0.98918  0.59078  1.0000
  I   I331      1.0  0.85175  0.82222  0.77069  1.0000
  I   I332      1.0  0.57465  0.99337  0.50000  1.0000
  I   I333      1.0  0.64805  0.64383  0.86210  1.0000
  I   I334      1.0  0.46390  0.98764  0.08256  1.0000
  I   I335      1.0  0.20352  0.51365  0.11244  1.0000
  I   I336      1.0  0.99469  0.11477  0.01405  1.0000
  I   I337      1.0  0.47408  0.98302  0.37369  1.0000
  I   I338      1.0  0.15104  0.34623  0.60318  1.0000
  I   I339      1.0  0.53245  0.99535  0.83445  1.0000
  I   I340      1.0  0.10809  0.49941  0.08324  1.0000
  I   I341      1.0  0.89281  0.50560  0.64007  1.0000
  I   I342      1.0  0.76853  0.96055  0.50966  1.0000
  I   I343      1.0  0.05574  0.70715  0.05369  1.0000
  I   I344      1.0  0.70511  0.09317  0.82366  1.0000
  I   I345      1.0  0.97180  0.19381  0.80755  1.0000
  I   I346      1.0  0.20436  0.83221  0.48004  1.0000
  I   I347      1.0  0.81495  0.66784  0.98635  1.0000
  I   I348      1.0  0.67286  0.20845  0.20301  1.0000
  I   I349      1.0  0.62423  0.20473  0.33611  1.0000
  I   I350      1.0  0.57804  0.51293  0.30262  1.0000
  I   I351      1.0  0.44903  0.86133  0.96206  1.0000
  I   I352      1.0  0.51662  0.46417  0.42103  1.0000
  I   I353      1.0  0.36502  0.08924  0.40318  1.0000
  I   I354      1.0  0.29326  0.36974  0.97273  1.0000
  I   I355      1.0  0.69585  0.22630  0.12603  1.0000
  I   I356      1.0  0.24361  0.51220  0.03274  1.0000
  I   I357      1.0  0.30717  0.68672  0.18574  1.0000
  I   I358      1.0  0.86393  0.43292  0.62212  1.0000
  I   I359      1.0  0.82619  0.43275  0.16173  1.0000
  I   I360      1.0  0.33017  0.15342  0.63880  1.0000
  I   I361      1.0  0.95438  0.80453  0.53060  1.0000
  I   I362      1.0  0.92271  0.03189  0.00180  1.0000
  I   I363      1.0  0.27243  0.72125  0.23954  1.0000
  I   I364      1.0  0.45182  0.60354  0.81336  1.0000
  I   I365      1.0  0.65292  0.31391  0.82774  1.0000
  I   I366      1.0  0.88552  0.67275  0.34429  1.0000
  I   I367      1.0  0.91146  0.93989  0.62583  1.0000
  I   I368      1.0  0.10095  0.46684  0.03338  1.0000
  I   I369      1.0  0.47718  0.10119  0.94856  1.0000
  I   I370      1.0  0.95327  0.13954  0.80552  1.0000
  I   I371      1.0  0.86359  0.12368  0.14739  1.0000
  I   I372      1.0  0.86883  0.41954  0.52640  1.0000
  I   I373      1.0  0.21659  0.97833  0.07179  1.0000
  I   I374      1.0  0.52864  0.60826  0.71028  1.0000
  I   I375      1.0  0.81731  0.11962  0.25512  1.0000
  I   I376      1.0  0.79960  0.46625  0.07087  1.0000
  I   I377      1.0  0.89430  0.06538  0.77607  1.0000
  I   I378      1.0  0.37888  0.45333  0.66711  1.0000
  I   I379      1.0  0.58714  0.32308  0.30024  1.0000
  I   I380      1.0  0.78763  0.35175  0.21030  1.0000
  I   I381      1.0  0.67084  0.20170  0.02522  1.0000
  I   I382      1.0  0.47905  0.95395  0.91931  1.0000
  I   I383      1.0  0.31013  0.80187  0.58467  1.0000
  I   I384      1.0  0.33198  0.18225  0.73550  1.0000
