data_image0
_chemical_formula_structural       Ti96I384
_chemical_formula_sum              "Ti96 I384"
_cell_length_a       79.5292
_cell_length_b       79.139
_cell_length_c       38.7843
_cell_angle_alpha    88.7757
_cell_angle_beta     88.7757
_cell_angle_gamma    62.1586

_space_group_name_H-M_alt    "P 1"
_space_group_IT_number       1

loop_
  _space_group_symop_operation_xyz
  'x, y, z'

loop_
  _atom_site_type_symbol
  _atom_site_label
  _atom_site_symmetry_multiplicity
  _atom_site_fract_x
  _atom_site_fract_y
  _atom_site_fract_z
  _atom_site_occupancy
  Ti  Ti1       1.0  0.57178  0.71204  0.16971  1.0000
  Ti  Ti2       1.0  0.62061  0.93033  0.53974  1.0000
  Ti  Ti3       1.0  0.01829  0.02170  0.33703  1.0000
  Ti  Ti4       1.0  0.44218  0.76284  0.03723  1.0000
  Ti  Ti5       1.0  0.96050  0.78061  0.75305  1.0000
  Ti  Ti6       1.0  0.15408  0.91273  0.42641  1.0000
  Ti  Ti7       1.0  0.40520  0.12953  0.86264  1.0000
  Ti  Ti8       1.0  0.68564  0.31946  0.65290  1.0000
  Ti  Ti9       1.0  0.10944  0.07453  0.64352  1.0000
  Ti  Ti10      1.0  0.90505  0.38413  0.19825  1.0000
  Ti  Ti11      1.0  0.10962  0.94273  0.73747  1.0000
  Ti  Ti12      1.0  0.23875  0.99142  0.09985  1.0000
  Ti  Ti13      1.0  0.48567  0.62543  0.31276  1.0000
  Ti  Ti14      1.0  0.47476  0.71933  0.07210  1.0000
  Ti  Ti15      1.0  0.81631  0.15896  0.11735  1.0000
  Ti  Ti16      1.0  0.87233  0.38900  0.58847  1.0000
  Ti  Ti17      1.0  0.28368  0.15187  0.44402  1.0000
  Ti  Ti18      1.0  0.62846  0.23197  0.51929  1.0000
  Ti  Ti19      1.0  0.20247  0.03998  0.11476  1.0000
  Ti  Ti20      1.0  0.90332  0.52458  0.65057  1.0000
  Ti  Ti21      1.0  0.68185  0.33624  0.71984  1.0000
  Ti  Ti22      1.0  0.54377  0.28327  0.11056  1.0000
  Ti  Ti23      1.0  0.40836  0.28791  0.49446  1.0000
  Ti  Ti24      1.0  0.70222  0.60663  0.36285  1.0000
  Ti  Ti25      1.0  0.87917  0.11979  0.79014  1.0000
  Ti  Ti26      1.0  0.16137  0.82194  0.65212  1.0000
  Ti  Ti27      1.0  0.81277  0.85577  0.66576  1.0000
  Ti  Ti28      1.0  0.35433  0.07630  0.10714  1.0000
  Ti  Ti29      1.0  0.07028  0.69668  0.65614  1.0000
  Ti  Ti30      1.0  0.31011  0.62636  0.63493  1.0000
  Ti  Ti31      1.0  0.88894  0.87337  0.48695  1.0000
  Ti  Ti32      1.0  0.19098  0.10069  0.70177  1.0000
  Ti  Ti33      1.0  0.70424  0.32680  0.12171  1.0000
  Ti  Ti34      1.0  0.74414  0.59600  0.74864  1.0000
  Ti  Ti35      1.0  0.57327  0.21602  0.72107  1.0000
  Ti  Ti36      1.0  0.96453  0.96792  0.88761  1.0000
  Ti  Ti37      1.0  0.42888  0.94164  0.39686  1.0000
  Ti  Ti38      1.0  0.55396  0.57225  0.63051  1.0000
  Ti  Ti39      1.0  0.95311  0.35756  0.25058  1.0000
  Ti  Ti40      1.0  0.61707  0.90673  0.06538  1.0000
  Ti  Ti41      1.0  0.87915  0.27981  0.17680  1.0000
  Ti  Ti42      1.0  0.29509  0.40072  0.09409  1.0000
  Ti  Ti43      1.0  0.43582  0.58572  0.95206  1.0000
  Ti  Ti44      1.0  0.16622  0.42046  0.39623  1.0000
  Ti  Ti45      1.0  0.92979  0.14022  0.50203  1.0000
  Ti  Ti46      1.0  0.73857  0.78160  0.06164  1.0000
  Ti  Ti47      1.0  0.41202  0.41648  0.61602  1.0000
  Ti  Ti48      1.0  0.64179  0.74897  0.36500  1.0000
  Ti  Ti49      1.0  0.74688  0.89391  0.13108  1.0000
  Ti  Ti50      1.0  0.03352  0.26186  0.08469  1.0000
  Ti  Ti51      1.0  0.63188  0.96202  0.56481  1.0000
  Ti  Ti52      1.0  0.30877  0.64061  0.23820  1.0000
  Ti  Ti53      1.0  0.69142  0.07745  0.23314  1.0000
  Ti  Ti54      1.0  0.73340  0.93045  0.92704  1.0000
  Ti  Ti55      1.0  0.78185  0.64580  0.27427  1.0000
  Ti  Ti56      1.0  0.75400  0.96609  0.48330  1.0000
  Ti  Ti57      1.0  0.10291  0.09688  0.70759  1.0000
  Ti  Ti58      1.0  0.84391  0.00999  0.40095  1.0000
  Ti  Ti59      1.0  0.90124  0.39254  0.66991  1.0000
  Ti  Ti60      1.0  0.06072  0.18658  0.84194  1.0000
  Ti  Ti61      1.0  0.52547  0.14799  0.40627  1.0000
  Ti  Ti62      1.0  0.52445  0.62410  0.36613  1.0000
  Ti  Ti63      1.0  0.00556  0.81646  0.82552  1.0000
  Ti  Ti64      1.0  0.63151  0.20124  0.55459  1.0000
  Ti  Ti65      1.0  0.95201  0.36407  0.93010  1.0000
  Ti  Ti66      1.0  0.26452  0.92715  0.32410  1.0000
  Ti  Ti67      1.0  0.39201  0.73434  0.78466  1.0000
  Ti  Ti68      1.0  0.85062  0.74093  0.58526  1.0000
  Ti  Ti69      1.0  0.20528  0.82326  0.63431  1.0000
  Ti  Ti70      1.0  0.26848  0.62441  0.94310  1.0000
  Ti  Ti71      1.0  0.66461  0.52643  0.12651  1.0000
  Ti  Ti72      1.0  0.43355  0.36671  0.70141  1.0000
  Ti  Ti73      1.0  0.46023  0.55936  0.47022  1.0000
  Ti  Ti74      1.0  0.85020  0.11225  0.89516  1.0000
  Ti  Ti75      1.0  0.75111  0.85534  0.23436  1.0000
  Ti  Ti76      1.0  0.28476  0.90762  0.72988  1.0000
  Ti  Ti77      1.0  0.84398  0.15107  0.17522  1.0000
  Ti  Ti78      1.0  0.08792  0.67406  0.59209  1.0000
  Ti  Ti79      1.0  0.68911  0.09197  0.66918  1.0000
  Ti  Ti80      1.0  0.96958  0.62766  0.23743  1.0000
  Ti  Ti81      1.0  0.40741  0.27483  0.39312  1.0000
  Ti  Ti82      1.0  0.66757  0.55479  0.91841  1.0000
  Ti  Ti83      1.0  0.88680  0.16947  0.53227  1.0000
  Ti  Ti84      1.0  0.95079  0.96681  0.98401  1.0000
  Ti  Ti85      1.0  0.47518  0.93446  0.41617  1.0000
  Ti  Ti86      1.0  0.38823  0.14832  0.76603  1.0000
  Ti  Ti87      1.0  0.54020  0.80536  0.67860  1.0000
  Ti  Ti88      1.0  0.71326  0.24868  0.87681  1.0000
  Ti  Ti89      1.0  0.91097  0.24566  0.97414  1.0000
  Ti  Ti90      1.0  0.33873  0.12838  0.46390  1.0000
  Ti  Ti91      1.0  0.52484  0.40188  0.10117  1.0000
  Ti  Ti92      1.0  0.60280  0.62639  0.92712  1.0000
  Ti  Ti93      1.0  0.30316  0.94758  0.94297  1.0000
  Ti  Ti94      1.0  0.63285  0.74645  0.29209  1.0000
  Ti  Ti95      1.0  0.17909  0.90443  0.13987  1.0000
  Ti  Ti96      1.0  0.19947  0.19879  0.96090  1.0000
  I   I1        1.0  0.37468  0.42651  0.59198  1.0000
  I   I2        1.0  0.61504  0.98227  0.50005  1.0000
  I   I3        1.0  0.72764  0.89387  0.18791  1.0000
  I   I4        1.0  0.66858  0.09019  0.17736  1.0000
  I   I5        1.0  0.17822  0.92173  0.39119  1.0000
  I   I6        1.0  0.76454  0.91218  0.96040  1.0000
  I   I7        1.0  0.65293  0.33089  0.73752  1.0000
  I   I8        1.0  0.74525  0.99817  0.51798  1.0000
  I   I9        1.0  0.11240  0.06201  0.57842  1.0000
  I   I10       1.0  0.60170  0.89122  0.10615  1.0000
  I   I11       1.0  0.09287  0.95459  0.66818  1.0000
  I   I12       1.0  0.92614  0.78607  0.74865  1.0000
  I   I13       1.0  0.52747  0.65222  0.33683  1.0000
  I   I14       1.0  0.00430  0.78570  0.78151  1.0000
  I   I15       1.0  0.82831  0.15211  0.05068  1.0000
  I   I16       1.0  0.64946  0.90620  0.08846  1.0000
  I   I17       1.0  0.25166  0.92442  0.38611  1.0000
  I   I18       1.0  0.64511  0.16893  0.58725  1.0000
  I   I19       1.0  0.04113  0.80575  0.83696  1.0000
  I   I20       1.0  0.09238  0.97603  0.75786  1.0000
  I   I21       1.0  0.67904  0.33019  0.59048  1.0000
  I   I22       1.0  0.38563  0.27550  0.34052  1.0000
  I   I23       1.0  0.72681  0.26417  0.82957  1.0000
  I   I24       1.0  0.23493  0.62747  0.94573  1.0000
  I   I25       1.0  0.91511  0.09286  0.77529  1.0000
  I   I26       1.0  0.76066  0.82765  0.18378  1.0000
  I   I27       1.0  0.56943  0.24817  0.74321  1.0000
  I   I28       1.0  0.31825  0.09014  0.10403  1.0000
  I   I29       1.0  0.06516  0.66238  0.56930  1.0000
  I   I30       1.0  0.30504  0.66126  0.64960  1.0000
  I   I31       1.0  0.98007  0.59711  0.19879  1.0000
  I   I32       1.0  0.42943  0.25097  0.44635  1.0000
  I   I33       1.0  0.66153  0.11534  0.62284  1.0000
  I   I34       1.0  0.60805  0.19121  0.72567  1.0000
  I   I35       1.0  0.95629  0.94709  0.04670  1.0000
  I   I36       1.0  0.76817  0.60495  0.71981  1.0000
  I   I37       1.0  0.39413  0.95141  0.42974  1.0000
  I   I38       1.0  0.89080  0.40201  0.14474  1.0000
  I   I39       1.0  0.44702  0.94548  0.46248  1.0000
  I   I40       1.0  0.13864  0.44941  0.42078  1.0000
  I   I41       1.0  0.06508  0.26254  0.07020  1.0000
  I   I42       1.0  0.59721  0.94247  0.06488  1.0000
  I   I43       1.0  0.81993  0.02012  0.45054  1.0000
  I   I44       1.0  0.93251  0.10644  0.51311  1.0000
  I   I45       1.0  0.88503  0.18448  0.59015  1.0000
  I   I46       1.0  0.17521  0.92465  0.08529  1.0000
  I   I47       1.0  0.42472  0.43612  0.64420  1.0000
  I   I48       1.0  0.66483  0.71328  0.30769  1.0000
  I   I49       1.0  0.78168  0.87713  0.10878  1.0000
  I   I50       1.0  0.63089  0.93288  0.60396  1.0000
  I   I51       1.0  0.60613  0.94613  0.48264  1.0000
  I   I52       1.0  0.97665  0.65342  0.20581  1.0000
  I   I53       1.0  0.72380  0.04695  0.22787  1.0000
  I   I54       1.0  0.71521  0.96127  0.97228  1.0000
  I   I55       1.0  0.39415  0.10950  0.82333  1.0000
  I   I56       1.0  0.71239  0.30043  0.70555  1.0000
  I   I57       1.0  0.15822  0.90951  0.19269  1.0000
  I   I58       1.0  0.98621  0.35880  0.22531  1.0000
  I   I59       1.0  0.90585  0.39000  0.59854  1.0000
  I   I60       1.0  0.07469  0.17372  0.89978  1.0000
  I   I61       1.0  0.56039  0.59454  0.35936  1.0000
  I   I62       1.0  0.46873  0.60500  0.29987  1.0000
  I   I63       1.0  0.91360  0.53993  0.59493  1.0000
  I   I64       1.0  0.87377  0.40499  0.71830  1.0000
  I   I65       1.0  0.61626  0.89528  0.00450  1.0000
  I   I66       1.0  0.36743  0.09775  0.07633  1.0000
  I   I67       1.0  0.17327  0.03577  0.09926  1.0000
  I   I68       1.0  0.91818  0.52462  0.70929  1.0000
  I   I69       1.0  0.14011  0.80337  0.66559  1.0000
  I   I70       1.0  0.26857  0.65554  0.97526  1.0000
  I   I71       1.0  0.41932  0.26013  0.54054  1.0000
  I   I72       1.0  0.46830  0.33768  0.70065  1.0000
  I   I73       1.0  0.77919  0.85979  0.67654  1.0000
  I   I74       1.0  0.15582  0.84827  0.59895  1.0000
  I   I75       1.0  0.24016  0.80018  0.63324  1.0000
  I   I76       1.0  0.82851  0.13845  0.23637  1.0000
  I   I77       1.0  0.84676  0.17072  0.11470  1.0000
  I   I78       1.0  0.86367  0.89032  0.43603  1.0000
  I   I79       1.0  0.70735  0.32852  0.05392  1.0000
  I   I80       1.0  0.59365  0.68358  0.12704  1.0000
  I   I81       1.0  0.19462  0.11650  0.64374  1.0000
  I   I82       1.0  0.69191  0.52488  0.88940  1.0000
  I   I83       1.0  0.90802  0.18500  0.50358  1.0000
  I   I84       1.0  0.96098  0.99219  0.94810  1.0000
  I   I85       1.0  0.46207  0.90981  0.39711  1.0000
  I   I86       1.0  0.38137  0.04186  0.11025  1.0000
  I   I87       1.0  0.93025  0.38996  0.27892  1.0000
  I   I88       1.0  0.93767  0.38739  0.19342  1.0000
  I   I89       1.0  0.76336  0.55824  0.74329  1.0000
  I   I90       1.0  0.01597  0.27596  0.14383  1.0000
  I   I91       1.0  0.52927  0.42294  0.14220  1.0000
  I   I92       1.0  0.57091  0.62251  0.96099  1.0000
  I   I93       1.0  0.16956  0.39910  0.45180  1.0000
  I   I94       1.0  0.65339  0.76428  0.30108  1.0000
  I   I95       1.0  0.72637  0.77205  0.12444  1.0000
  I   I96       1.0  0.56407  0.29343  0.07381  1.0000
  I   I97       1.0  0.00975  0.99338  0.32214  1.0000
  I   I98       1.0  0.54266  0.70737  0.17618  1.0000
  I   I99       1.0  0.63718  0.89416  0.52579  1.0000
  I   I100      1.0  0.50890  0.71329  0.04891  1.0000
  I   I101      1.0  0.72065  0.25794  0.93379  1.0000
  I   I102      1.0  0.98250  0.74629  0.77143  1.0000
  I   I103      1.0  0.38837  0.17530  0.73406  1.0000
  I   I104      1.0  0.76859  0.66730  0.21553  1.0000
  I   I105      1.0  0.11678  0.09772  0.77117  1.0000
  I   I106      1.0  0.24332  0.95710  0.09108  1.0000
  I   I107      1.0  0.88516  0.36655  0.20071  1.0000
  I   I108      1.0  0.21153  0.00581  0.15667  1.0000
  I   I109      1.0  0.79078  0.19560  0.08207  1.0000
  I   I110      1.0  0.50524  0.60380  0.37383  1.0000
  I   I111      1.0  0.86408  0.53657  0.64099  1.0000
  I   I112      1.0  0.66221  0.20319  0.54376  1.0000
  I   I113      1.0  0.94710  0.33295  0.94895  1.0000
  I   I114      1.0  0.26967  0.12953  0.41563  1.0000
  I   I115      1.0  0.35545  0.76351  0.77570  1.0000
  I   I116      1.0  0.39182  0.75102  0.84217  1.0000
  I   I117      1.0  0.83729  0.72515  0.62948  1.0000
  I   I118      1.0  0.16862  0.19378  0.95622  1.0000
  I   I119      1.0  0.38532  0.70527  0.78494  1.0000
  I   I120      1.0  0.42069  0.41764  0.55076  1.0000
  I   I121      1.0  0.48998  0.56349  0.44359  1.0000
  I   I122      1.0  0.85966  0.12053  0.73776  1.0000
  I   I123      1.0  0.76143  0.87985  0.26120  1.0000
  I   I124      1.0  0.33155  0.62084  0.58028  1.0000
  I   I125      1.0  0.27849  0.90649  0.79968  1.0000
  I   I126      1.0  0.07189  0.70740  0.55176  1.0000
  I   I127      1.0  0.69206  0.30003  0.11642  1.0000
  I   I128      1.0  0.46826  0.76312  0.08937  1.0000
  I   I129      1.0  0.42192  0.30982  0.47706  1.0000
  I   I130      1.0  0.95270  0.94531  0.92809  1.0000
  I   I131      1.0  0.68106  0.57916  0.91370  1.0000
  I   I132      1.0  0.55022  0.20647  0.74932  1.0000
  I   I133      1.0  0.96866  0.32686  0.28214  1.0000
  I   I134      1.0  0.54374  0.60317  0.60145  1.0000
  I   I135      1.0  0.29677  0.92771  0.33011  1.0000
  I   I136      1.0  0.30465  0.40271  0.16524  1.0000
  I   I137      1.0  0.31560  0.65384  0.17924  1.0000
  I   I138      1.0  0.88585  0.26854  0.93455  1.0000
  I   I139      1.0  0.52362  0.36731  0.10773  1.0000
  I   I140      1.0  0.60643  0.62757  0.85729  1.0000
  I   I141      1.0  0.28061  0.98221  0.96286  1.0000
  I   I142      1.0  0.62288  0.75354  0.22791  1.0000
  I   I143      1.0  0.04878  0.99598  0.36893  1.0000
  I   I144      1.0  0.52439  0.31391  0.14940  1.0000
  I   I145      1.0  0.58146  0.71580  0.23041  1.0000
  I   I146      1.0  0.58785  0.94288  0.56467  1.0000
  I   I147      1.0  0.02961  0.01851  0.27585  1.0000
  I   I148      1.0  0.30806  0.61134  0.20853  1.0000
  I   I149      1.0  0.95258  0.81545  0.77189  1.0000
  I   I150      1.0  0.13426  0.94367  0.46552  1.0000
  I   I151      1.0  0.77717  0.66568  0.32724  1.0000
  I   I152      1.0  0.67415  0.29435  0.65926  1.0000
  I   I153      1.0  0.13101  0.09215  0.65768  1.0000
  I   I154      1.0  0.43725  0.55128  0.93878  1.0000
  I   I155      1.0  0.14053  0.92531  0.77187  1.0000
  I   I156      1.0  0.07905  0.15537  0.80009  1.0000
  I   I157      1.0  0.87750  0.13728  0.20087  1.0000
  I   I158      1.0  0.00914  0.79282  0.88424  1.0000
  I   I159      1.0  0.50733  0.12884  0.42303  1.0000
  I   I160      1.0  0.59738  0.21220  0.51612  1.0000
  I   I161      1.0  0.31544  0.11265  0.43390  1.0000
  I   I162      1.0  0.59691  0.26490  0.52907  1.0000
  I   I163      1.0  0.18574  0.05356  0.17635  1.0000
  I   I164      1.0  0.76422  0.79169  0.07136  1.0000
  I   I165      1.0  0.70001  0.32262  0.78828  1.0000
  I   I166      1.0  0.19054  0.22296  0.90774  1.0000
  I   I167      1.0  0.43622  0.23958  0.36742  1.0000
  I   I168      1.0  0.73079  0.58354  0.39808  1.0000
  I   I169      1.0  0.85036  0.08155  0.91677  1.0000
  I   I170      1.0  0.84725  0.13993  0.84380  1.0000
  I   I171      1.0  0.83255  0.82429  0.70398  1.0000
  I   I172      1.0  0.29281  0.87677  0.69676  1.0000
  I   I173      1.0  0.09221  0.65597  0.64741  1.0000
  I   I174      1.0  0.31849  0.62026  0.70349  1.0000
  I   I175      1.0  0.92168  0.87285  0.46842  1.0000
  I   I176      1.0  0.22574  0.07089  0.70346  1.0000
  I   I177      1.0  0.72579  0.08065  0.67827  1.0000
  I   I178      1.0  0.66856  0.54151  0.97979  1.0000
  I   I179      1.0  0.89006  0.14037  0.57367  1.0000
  I   I180      1.0  0.99076  0.95034  0.99745  1.0000
  I   I181      1.0  0.48416  0.96229  0.45296  1.0000
  I   I182      1.0  0.37058  0.15836  0.83069  1.0000
  I   I183      1.0  0.56596  0.77722  0.71510  1.0000
  I   I184      1.0  0.67573  0.27261  0.87130  1.0000
  I   I185      1.0  0.89353  0.27021  0.02791  1.0000
  I   I186      1.0  0.29305  0.40983  0.03087  1.0000
  I   I187      1.0  0.56801  0.65871  0.92083  1.0000
  I   I188      1.0  0.16564  0.41500  0.33033  1.0000
  I   I189      1.0  0.51400  0.83476  0.71689  1.0000
  I   I190      1.0  0.70291  0.80406  0.04925  1.0000
  I   I191      1.0  0.25356  0.16884  0.47687  1.0000
  I   I192      1.0  0.02173  0.05321  0.35293  1.0000
  I   I193      1.0  0.10398  0.69342  0.65700  1.0000
  I   I194      1.0  0.92389  0.48442  0.65411  1.0000
  I   I195      1.0  0.98903  0.04777  0.38079  1.0000
  I   I196      1.0  0.41528  0.79943  0.04466  1.0000
  I   I197      1.0  0.84001  0.98235  0.37604  1.0000
  I   I198      1.0  0.13717  0.90126  0.38431  1.0000
  I   I199      1.0  0.19915  0.11795  0.74687  1.0000
  I   I200      1.0  0.72178  0.96667  0.47822  1.0000
  I   I201      1.0  0.07124  0.10910  0.73655  1.0000
  I   I202      1.0  0.84875  0.42479  0.57731  1.0000
  I   I203      1.0  0.19125  0.81049  0.69648  1.0000
  I   I204      1.0  0.27071  0.98466  0.07773  1.0000
  I   I205      1.0  0.54183  0.61160  0.42920  1.0000
  I   I206      1.0  0.42631  0.74361  0.06789  1.0000
  I   I207      1.0  0.79180  0.14980  0.09257  1.0000
  I   I208      1.0  0.87878  0.36977  0.53106  1.0000
  I   I209      1.0  0.34770  0.10785  0.52160  1.0000
  I   I210      1.0  0.70258  0.06039  0.62917  1.0000
  I   I211      1.0  0.27588  0.62451  0.87591  1.0000
  I   I212      1.0  0.98958  0.85418  0.81914  1.0000
  I   I213      1.0  0.18641  0.85857  0.66132  1.0000
  I   I214      1.0  0.56652  0.25628  0.15237  1.0000
  I   I215      1.0  0.39419  0.31420  0.54909  1.0000
  I   I216      1.0  0.34323  0.93170  0.92862  1.0000
  I   I217      1.0  0.87933  0.15217  0.78300  1.0000
  I   I218      1.0  0.77104  0.82648  0.27742  1.0000
  I   I219      1.0  0.44376  0.58303  0.52136  1.0000
  I   I220      1.0  0.84559  0.12262  0.12813  1.0000
  I   I221      1.0  0.06493  0.73459  0.67438  1.0000
  I   I222      1.0  0.25502  0.93718  0.71590  1.0000
  I   I223      1.0  0.88565  0.90418  0.51067  1.0000
  I   I224      1.0  0.15568  0.11729  0.72451  1.0000
  I   I225      1.0  0.74096  0.30791  0.13141  1.0000
  I   I226      1.0  0.64559  0.55205  0.86532  1.0000
  I   I227      1.0  0.54609  0.23176  0.67072  1.0000
  I   I228      1.0  0.99966  0.93642  0.88992  1.0000
  I   I229      1.0  0.86356  0.02382  0.36206  1.0000
  I   I230      1.0  0.52554  0.56787  0.65317  1.0000
  I   I231      1.0  0.87683  0.41302  0.23381  1.0000
  I   I232      1.0  0.47689  0.70983  0.13700  1.0000
  I   I233      1.0  0.85388  0.31501  0.18310  1.0000
  I   I234      1.0  0.27484  0.17739  0.39607  1.0000
  I   I235      1.0  0.42075  0.59048  0.01665  1.0000
  I   I236      1.0  0.29195  0.94633  0.88109  1.0000
  I   I237      1.0  0.53853  0.41008  0.04289  1.0000
  I   I238      1.0  0.17063  0.88218  0.10576  1.0000
  I   I239      1.0  0.21605  0.16471  0.94351  1.0000
  I   I240      1.0  0.64018  0.72418  0.40666  1.0000
  I   I241      1.0  0.55015  0.74661  0.15372  1.0000
  I   I242      1.0  0.59552  0.98981  0.59028  1.0000
  I   I243      1.0  0.88220  0.74708  0.58755  1.0000
  I   I244      1.0  0.73277  0.21154  0.87628  1.0000
  I   I245      1.0  0.68492  0.10783  0.27778  1.0000
  I   I246      1.0  0.17702  0.88327  0.46684  1.0000
  I   I247      1.0  0.42106  0.10329  0.90840  1.0000
  I   I248      1.0  0.70872  0.33489  0.65987  1.0000
  I   I249      1.0  0.13257  0.05611  0.70105  1.0000
  I   I250      1.0  0.91021  0.42244  0.65717  1.0000
  I   I251      1.0  0.13716  0.93022  0.69100  1.0000
  I   I252      1.0  0.08221  0.20247  0.81626  1.0000
  I   I253      1.0  0.47656  0.65527  0.35435  1.0000
  I   I254      1.0  0.48018  0.68733  0.04304  1.0000
  I   I255      1.0  0.55639  0.12951  0.36954  1.0000
  I   I256      1.0  0.94522  0.38835  0.88445  1.0000
  I   I257      1.0  0.50710  0.91828  0.38313  1.0000
  I   I258      1.0  0.61982  0.22885  0.60049  1.0000
  I   I259      1.0  0.41072  0.73606  0.72978  1.0000
  I   I260      1.0  0.75419  0.75827  0.01182  1.0000
  I   I261      1.0  0.67143  0.37168  0.73297  1.0000
  I   I262      1.0  0.52133  0.26959  0.09255  1.0000
  I   I263      1.0  0.64811  0.56326  0.14223  1.0000
  I   I264      1.0  0.97386  0.99308  0.85885  1.0000
  I   I265      1.0  0.87662  0.11156  0.93429  1.0000
  I   I266      1.0  0.14193  0.85230  0.68858  1.0000
  I   I267      1.0  0.47352  0.52271  0.48658  1.0000
  I   I268      1.0  0.27072  0.89276  0.30339  1.0000
  I   I269      1.0  0.11646  0.64941  0.55616  1.0000
  I   I270      1.0  0.35771  0.08570  0.16822  1.0000
  I   I271      1.0  0.88363  0.85125  0.53034  1.0000
  I   I272      1.0  0.42165  0.29569  0.36898  1.0000
  I   I273      1.0  0.69624  0.36203  0.14094  1.0000
  I   I274      1.0  0.86733  0.27565  0.11603  1.0000
  I   I275      1.0  0.81523  0.84233  0.60491  1.0000
  I   I276      1.0  0.91463  0.98998  0.99585  1.0000
  I   I277      1.0  0.62705  0.58903  0.94497  1.0000
  I   I278      1.0  0.55255  0.55342  0.56871  1.0000
  I   I279      1.0  0.18958  0.43496  0.40112  1.0000
  I   I280      1.0  0.33363  0.62917  0.28256  1.0000
  I   I281      1.0  0.90709  0.26892  0.22518  1.0000
  I   I282      1.0  0.26092  0.40791  0.10920  1.0000
  I   I283      1.0  0.46827  0.57992  0.93278  1.0000
  I   I284      1.0  0.69516  0.63699  0.39435  1.0000
  I   I285      1.0  0.55358  0.82814  0.65791  1.0000
  I   I286      1.0  0.21679  0.88363  0.13707  1.0000
  I   I287      1.0  0.41307  0.34781  0.70981  1.0000
  I   I288      1.0  0.60489  0.76718  0.35307  1.0000
  I   I289      1.0  0.41304  0.61620  0.91945  1.0000
  I   I290      1.0  0.36600  0.14061  0.48042  1.0000
  I   I291      1.0  0.64977  0.98033  0.58746  1.0000
  I   I292      1.0  0.27487  0.66100  0.26237  1.0000
  I   I293      1.0  0.66932  0.07229  0.27452  1.0000
  I   I294      1.0  0.72755  0.89886  0.93757  1.0000
  I   I295      1.0  0.42403  0.13551  0.80865  1.0000
  I   I296      1.0  0.78713  0.95085  0.45700  1.0000
  I   I297      1.0  0.08803  0.05795  0.65699  1.0000
  I   I298      1.0  0.86945  0.99368  0.44616  1.0000
  I   I299      1.0  0.84588  0.37858  0.62147  1.0000
  I   I300      1.0  0.31016  0.91812  0.99376  1.0000
  I   I301      1.0  0.53099  0.15910  0.46410  1.0000
  I   I302      1.0  0.47903  0.64217  0.25291  1.0000
  I   I303      1.0  0.98825  0.34632  0.91170  1.0000
  I   I304      1.0  0.65018  0.24657  0.49270  1.0000
  I   I305      1.0  0.89391  0.36453  0.65142  1.0000
  I   I306      1.0  0.40252  0.16090  0.90124  1.0000
  I   I307      1.0  0.24240  0.02316  0.12533  1.0000
  I   I308      1.0  0.00482  0.28477  0.04072  1.0000
  I   I309      1.0  0.65097  0.34959  0.66131  1.0000
  I   I310      1.0  0.74386  0.92884  0.13419  1.0000
  I   I311      1.0  0.63845  0.53112  0.08064  1.0000
  I   I312      1.0  0.39320  0.39805  0.67194  1.0000
  I   I313      1.0  0.44090  0.56290  0.41248  1.0000
  I   I314      1.0  0.87059  0.09548  0.83374  1.0000
  I   I315      1.0  0.71949  0.86199  0.26780  1.0000
  I   I316      1.0  0.30337  0.92364  0.74911  1.0000
  I   I317      1.0  0.24316  0.95666  0.27811  1.0000
  I   I318      1.0  0.03612  0.70784  0.62567  1.0000
  I   I319      1.0  0.69062  0.12439  0.65197  1.0000
  I   I320      1.0  0.42007  0.77153  0.97465  1.0000
  I   I321      1.0  0.80707  0.60724  0.27194  1.0000
  I   I322      1.0  0.74035  0.61001  0.81781  1.0000
  I   I323      1.0  0.95159  0.14143  0.45462  1.0000
  I   I324      1.0  0.93793  0.97272  0.84734  1.0000
  I   I325      1.0  0.44219  0.96227  0.37503  1.0000
  I   I326      1.0  0.40443  0.12277  0.71350  1.0000
  I   I327      1.0  0.94539  0.14408  0.55753  1.0000
  I   I328      1.0  0.93121  0.34307  0.21953  1.0000
  I   I329      1.0  0.94227  0.24250  0.95268  1.0000
  I   I330      1.0  0.30734  0.15961  0.48179  1.0000
  I   I331      1.0  0.51916  0.78742  0.65326  1.0000
  I   I332      1.0  0.36975  0.09900  0.43531  1.0000
  I   I333      1.0  0.71242  0.61840  0.72294  1.0000
  I   I334      1.0  0.61217  0.72753  0.31385  1.0000
  I   I335      1.0  0.85211  0.72362  0.52982  1.0000
  I   I336      1.0  0.20488  0.20679  0.02644  1.0000
  I   I337      1.0  0.73066  0.89463  0.07200  1.0000
  I   I338      1.0  0.04201  0.22735  0.07031  1.0000
  I   I339      1.0  0.66650  0.92715  0.53919  1.0000
  I   I340      1.0  0.93884  0.63165  0.28124  1.0000
  I   I341      1.0  0.95731  0.78337  0.68304  1.0000
  I   I342      1.0  0.74312  0.92542  0.85824  1.0000
  I   I343      1.0  0.75360  0.64098  0.30000  1.0000
  I   I344      1.0  0.77452  0.92778  0.51082  1.0000
  I   I345      1.0  0.08170  0.10825  0.64271  1.0000
  I   I346      1.0  0.28897  0.59387  0.97217  1.0000
  I   I347      1.0  0.93031  0.37490  0.70724  1.0000
  I   I348      1.0  0.02205  0.20768  0.84785  1.0000
  I   I349      1.0  0.49836  0.17822  0.37654  1.0000
  I   I350      1.0  0.52514  0.61070  0.28715  1.0000
  I   I351      1.0  0.47193  0.73678  0.00242  1.0000
  I   I352      1.0  0.64059  0.19642  0.47791  1.0000
  I   I353      1.0  0.95847  0.38072  0.98225  1.0000
  I   I354      1.0  0.35605  0.14225  0.76024  1.0000
  I   I355      1.0  0.20082  0.07324  0.10499  1.0000
  I   I356      1.0  0.82713  0.77475  0.56095  1.0000
  I   I357      1.0  0.20415  0.83414  0.57030  1.0000
  I   I358      1.0  0.71287  0.60822  0.30029  1.0000
  I   I359      1.0  0.65265  0.50493  0.16042  1.0000
  I   I360      1.0  0.43853  0.39161  0.74506  1.0000
  I   I361      1.0  0.84027  0.86461  0.65057  1.0000
  I   I362      1.0  0.81257  0.12317  0.88339  1.0000
  I   I363      1.0  0.19470  0.79125  0.62034  1.0000
  I   I364      1.0  0.29127  0.60807  0.62608  1.0000
  I   I365      1.0  0.80815  0.18239  0.17121  1.0000
  I   I366      1.0  0.06584  0.69166  0.72082  1.0000
  I   I367      1.0  0.66717  0.10906  0.72379  1.0000
  I   I368      1.0  0.98915  0.61875  0.29636  1.0000
  I   I369      1.0  0.37652  0.30266  0.44975  1.0000
  I   I370      1.0  0.87129  0.25355  0.20171  1.0000
  I   I371      1.0  0.85225  0.17907  0.50731  1.0000
  I   I372      1.0  0.68296  0.58764  0.36160  1.0000
  I   I373      1.0  0.40844  0.94339  0.34297  1.0000
  I   I374      1.0  0.57712  0.55217  0.67920  1.0000
  I   I375      1.0  0.89458  0.14411  0.47146  1.0000
  I   I376      1.0  0.69878  0.51113  0.10936  1.0000
  I   I377      1.0  0.91597  0.21326  0.00269  1.0000
  I   I378      1.0  0.30897  0.36428  0.09199  1.0000
  I   I379      1.0  0.49053  0.41379  0.07995  1.0000
  I   I380      1.0  0.62701  0.63935  0.94298  1.0000
  I   I381      1.0  0.21981  0.00453  0.04911  1.0000
  I   I382      1.0  0.64672  0.77101  0.40876  1.0000
  I   I383      1.0  0.08592  0.92937  0.74458  1.0000
  I   I384      1.0  0.43915  0.37884  0.63707  1.0000
