data_image0
_chemical_formula_structural       Ti96I384
_chemical_formula_sum              "Ti96 I384"
_cell_length_a       63.9988
_cell_length_b       63.7248
_cell_length_c       31.1704
_cell_angle_alpha    88.7757
_cell_angle_beta     88.7757
_cell_angle_gamma    62.1586

_space_group_name_H-M_alt    "P 1"
_space_group_IT_number       1

loop_
  _space_group_symop_operation_xyz
  'x, y, z'

loop_
  _atom_site_type_symbol
  _atom_site_label
  _atom_site_symmetry_multiplicity
  _atom_site_fract_x
  _atom_site_fract_y
  _atom_site_fract_z
  _atom_site_occupancy
  Ti  Ti1       1.0  0.46679  0.95981  0.64062  1.0000
  Ti  Ti2       1.0  0.45579  0.14384  0.53020  1.0000
  Ti  Ti3       1.0  0.83937  0.77168  0.04252  1.0000
  Ti  Ti4       1.0  0.88248  0.22043  0.08548  1.0000
  Ti  Ti5       1.0  0.29956  0.79516  0.81217  1.0000
  Ti  Ti6       1.0  0.27829  0.20599  0.31253  1.0000
  Ti  Ti7       1.0  0.94349  0.87373  0.92474  1.0000
  Ti  Ti8       1.0  0.45860  0.45123  0.82189  1.0000
  Ti  Ti9       1.0  0.37506  0.85697  0.99297  1.0000
  Ti  Ti10      1.0  0.84122  0.66240  0.63094  1.0000
  Ti  Ti11      1.0  0.44967  0.29641  0.61796  1.0000
  Ti  Ti12      1.0  0.10915  0.61404  0.46255  1.0000
  Ti  Ti13      1.0  0.22697  0.43001  0.45289  1.0000
  Ti  Ti14      1.0  0.09208  0.98542  0.62258  1.0000
  Ti  Ti15      1.0  0.52690  0.02580  0.17438  1.0000
  Ti  Ti16      1.0  0.64732  0.91327  0.73426  1.0000
  Ti  Ti17      1.0  0.36213  0.20941  0.98843  1.0000
  Ti  Ti18      1.0  0.00363  0.72585  0.85268  1.0000
  Ti  Ti19      1.0  0.87350  0.83448  0.50732  1.0000
  Ti  Ti20      1.0  0.30581  0.06685  0.01536  1.0000
  Ti  Ti21      1.0  0.90451  0.15965  0.42225  1.0000
  Ti  Ti22      1.0  0.62574  0.45661  0.83546  1.0000
  Ti  Ti23      1.0  0.76525  0.89344  0.96042  1.0000
  Ti  Ti24      1.0  0.06355  0.69453  0.99753  1.0000
  Ti  Ti25      1.0  0.94352  0.50350  0.45799  1.0000
  Ti  Ti26      1.0  0.12922  0.10936  0.10219  1.0000
  Ti  Ti27      1.0  0.18920  0.52199  0.21520  1.0000
  Ti  Ti28      1.0  0.56128  0.42154  0.22130  1.0000
  Ti  Ti29      1.0  0.00540  0.89045  0.30885  1.0000
  Ti  Ti30      1.0  0.82688  0.35565  0.22016  1.0000
  Ti  Ti31      1.0  0.88800  0.31122  0.48695  1.0000
  Ti  Ti32      1.0  0.63235  0.16306  0.26347  1.0000
  Ti  Ti33      1.0  0.37017  0.90907  0.29620  1.0000
  Ti  Ti34      1.0  0.48335  0.71793  0.81380  1.0000
  Ti  Ti35      1.0  0.84651  0.53958  0.81762  1.0000
  Ti  Ti36      1.0  0.97823  0.53028  0.09038  1.0000
  Ti  Ti37      1.0  0.03032  0.25188  0.36514  1.0000
  Ti  Ti38      1.0  0.38503  0.49304  0.28185  1.0000
  Ti  Ti39      1.0  0.73092  0.22374  0.33893  1.0000
  Ti  Ti40      1.0  0.55552  0.82681  0.22522  1.0000
  Ti  Ti41      1.0  0.55955  0.73009  0.53474  1.0000
  Ti  Ti42      1.0  0.60409  0.25787  0.71768  1.0000
  Ti  Ti43      1.0  0.55799  0.11313  0.73629  1.0000
  Ti  Ti44      1.0  0.75419  0.55783  0.12077  1.0000
  Ti  Ti45      1.0  0.41673  0.60135  0.17012  1.0000
  Ti  Ti46      1.0  0.12904  0.33991  0.82762  1.0000
  Ti  Ti47      1.0  0.09269  0.24680  0.03820  1.0000
  Ti  Ti48      1.0  0.37831  0.66645  0.65163  1.0000
  Ti  Ti49      1.0  0.42694  0.96460  0.73809  1.0000
  Ti  Ti50      1.0  0.24782  0.20899  0.78099  1.0000
  Ti  Ti51      1.0  0.47186  0.07580  0.53552  1.0000
  Ti  Ti52      1.0  0.82337  0.21115  0.11709  1.0000
  Ti  Ti53      1.0  0.25937  0.68119  0.37130  1.0000
  Ti  Ti54      1.0  0.30790  0.16305  0.40592  1.0000
  Ti  Ti55      1.0  0.96899  0.88414  0.02525  1.0000
  Ti  Ti56      1.0  0.49415  0.38160  0.87810  1.0000
  Ti  Ti57      1.0  0.36761  0.87108  0.90053  1.0000
  Ti  Ti58      1.0  0.53355  0.10269  0.84907  1.0000
  Ti  Ti59      1.0  0.83292  0.67783  0.51794  1.0000
  Ti  Ti60      1.0  0.05888  0.69906  0.49016  1.0000
  Ti  Ti61      1.0  0.53198  0.08963  0.13339  1.0000
  Ti  Ti62      1.0  0.15999  0.45491  0.40353  1.0000
  Ti  Ti63      1.0  0.09894  0.98238  0.72441  1.0000
  Ti  Ti64      1.0  0.97868  0.76529  0.77706  1.0000
  Ti  Ti65      1.0  0.17016  0.50361  0.64284  1.0000
  Ti  Ti66      1.0  0.39280  0.39104  0.41214  1.0000
  Ti  Ti67      1.0  0.90570  0.78573  0.40430  1.0000
  Ti  Ti68      1.0  0.05071  0.21513  0.69006  1.0000
  Ti  Ti69      1.0  0.95822  0.14374  0.53592  1.0000
  Ti  Ti70      1.0  0.59126  0.43074  0.88711  1.0000
  Ti  Ti71      1.0  0.75601  0.84920  0.98826  1.0000
  Ti  Ti72      1.0  0.03759  0.02871  0.15786  1.0000
  Ti  Ti73      1.0  0.22154  0.57473  0.16667  1.0000
  Ti  Ti74      1.0  0.02338  0.45062  0.48845  1.0000
  Ti  Ti75      1.0  0.17928  0.04456  0.12336  1.0000
  Ti  Ti76      1.0  0.84081  0.38879  0.11703  1.0000
  Ti  Ti77      1.0  0.62494  0.41126  0.24309  1.0000
  Ti  Ti78      1.0  0.97483  0.94723  0.25345  1.0000
  Ti  Ti79      1.0  0.19448  0.71959  0.62053  1.0000
  Ti  Ti80      1.0  0.91013  0.37223  0.47674  1.0000
  Ti  Ti81      1.0  0.64382  0.15747  0.14654  1.0000
  Ti  Ti82      1.0  0.49632  0.66298  0.87171  1.0000
  Ti  Ti83      1.0  0.81376  0.51266  0.74071  1.0000
  Ti  Ti84      1.0  0.02440  0.52593  0.05980  1.0000
  Ti  Ti85      1.0  0.00830  0.26828  0.26785  1.0000
  Ti  Ti86      1.0  0.38762  0.46120  0.38141  1.0000
  Ti  Ti87      1.0  0.69453  0.25113  0.45447  1.0000
  Ti  Ti88      1.0  0.65454  0.78606  0.12837  1.0000
  Ti  Ti89      1.0  0.56356  0.69756  0.41849  1.0000
  Ti  Ti90      1.0  0.59628  0.20826  0.68778  1.0000
  Ti  Ti91      1.0  0.43869  0.59814  0.05553  1.0000
  Ti  Ti92      1.0  0.86435  0.08219  0.58883  1.0000
  Ti  Ti93      1.0  0.76971  0.61483  0.09798  1.0000
  Ti  Ti94      1.0  0.43744  0.64133  0.60519  1.0000
  Ti  Ti95      1.0  0.19335  0.31122  0.84661  1.0000
  Ti  Ti96      1.0  0.13871  0.22350  0.94972  1.0000
  I   I1        1.0  0.16478  0.22168  0.01227  1.0000
  I   I2        1.0  0.43323  0.11449  0.49211  1.0000
  I   I3        1.0  0.39324  0.95505  0.70896  1.0000
  I   I4        1.0  0.22020  0.68412  0.39559  1.0000
  I   I5        1.0  0.28097  0.24508  0.30171  1.0000
  I   I6        1.0  0.26345  0.20836  0.39751  1.0000
  I   I7        1.0  0.52200  0.39477  0.82445  1.0000
  I   I8        1.0  0.49023  0.42606  0.90041  1.0000
  I   I9        1.0  0.32168  0.87396  0.90576  1.0000
  I   I10       1.0  0.84161  0.63358  0.54314  1.0000
  I   I11       1.0  0.45356  0.28069  0.53817  1.0000
  I   I12       1.0  0.29977  0.82116  0.74755  1.0000
  I   I13       1.0  0.18097  0.43242  0.47494  1.0000
  I   I14       1.0  0.07590  0.97712  0.78782  1.0000
  I   I15       1.0  0.48429  0.03132  0.15913  1.0000
  I   I16       1.0  0.64609  0.87918  0.68896  1.0000
  I   I17       1.0  0.37073  0.38791  0.48165  1.0000
  I   I18       1.0  0.94606  0.81113  0.77213  1.0000
  I   I19       1.0  0.30086  0.02915  0.04144  1.0000
  I   I20       1.0  0.40766  0.31353  0.64654  1.0000
  I   I21       1.0  0.86495  0.17357  0.46986  1.0000
  I   I22       1.0  0.73963  0.93736  0.96926  1.0000
  I   I23       1.0  0.76618  0.85776  0.90622  1.0000
  I   I24       1.0  0.61556  0.39097  0.84733  1.0000
  I   I25       1.0  0.05011  0.46856  0.46318  1.0000
  I   I26       1.0  0.15905  0.06923  0.04672  1.0000
  I   I27       1.0  0.16521  0.51391  0.15756  1.0000
  I   I28       1.0  0.66213  0.38798  0.19572  1.0000
  I   I29       1.0  0.94130  0.96350  0.19398  1.0000
  I   I30       1.0  0.87276  0.36757  0.05535  1.0000
  I   I31       1.0  0.93105  0.30675  0.43822  1.0000
  I   I32       1.0  0.67909  0.15779  0.09873  1.0000
  I   I33       1.0  0.16594  0.76657  0.62807  1.0000
  I   I34       1.0  0.81538  0.55213  0.73298  1.0000
  I   I35       1.0  0.04809  0.54429  0.10216  1.0000
  I   I36       1.0  0.50865  0.74053  0.83320  1.0000
  I   I37       1.0  0.03726  0.27146  0.43378  1.0000
  I   I38       1.0  0.75265  0.17809  0.32492  1.0000
  I   I39       1.0  0.99724  0.23594  0.40514  1.0000
  I   I40       1.0  0.57162  0.71671  0.34964  1.0000
  I   I41       1.0  0.60915  0.16785  0.72221  1.0000
  I   I42       1.0  0.53909  0.85750  0.16295  1.0000
  I   I43       1.0  0.55280  0.07361  0.77007  1.0000
  I   I44       1.0  0.81636  0.59915  0.08497  1.0000
  I   I45       1.0  0.47271  0.57742  0.00059  1.0000
  I   I46       1.0  0.10036  0.32016  0.82217  1.0000
  I   I47       1.0  0.10563  0.27280  0.97436  1.0000
  I   I48       1.0  0.40887  0.61718  0.62734  1.0000
  I   I49       1.0  0.42872  0.94027  0.80607  1.0000
  I   I50       1.0  0.47610  0.14714  0.45846  1.0000
  I   I51       1.0  0.41135  0.17191  0.53080  1.0000
  I   I52       1.0  0.92840  0.19501  0.07606  1.0000
  I   I53       1.0  0.24610  0.72403  0.34108  1.0000
  I   I54       1.0  0.34992  0.13202  0.41448  1.0000
  I   I55       1.0  0.98852  0.87207  0.92995  1.0000
  I   I56       1.0  0.50988  0.37151  0.95644  1.0000
  I   I57       1.0  0.41200  0.83939  0.91677  1.0000
  I   I58       1.0  0.84436  0.69150  0.69116  1.0000
  I   I59       1.0  0.81470  0.65992  0.69351  1.0000
  I   I60       1.0  0.12037  0.61863  0.54052  1.0000
  I   I61       1.0  0.17887  0.42569  0.33915  1.0000
  I   I62       1.0  0.12900  0.44110  0.42085  1.0000
  I   I63       1.0  0.12884  0.94260  0.67531  1.0000
  I   I64       1.0  0.69266  0.88743  0.75958  1.0000
  I   I65       1.0  0.19948  0.49910  0.58169  1.0000
  I   I66       1.0  0.43011  0.34824  0.41266  1.0000
  I   I67       1.0  0.94431  0.77707  0.35421  1.0000
  I   I68       1.0  0.28349  0.08391  0.94177  1.0000
  I   I69       1.0  0.92514  0.13122  0.53610  1.0000
  I   I70       1.0  0.59926  0.41426  0.96371  1.0000
  I   I71       1.0  0.71776  0.89395  0.98397  1.0000
  I   I72       1.0  0.06303  0.98706  0.19501  1.0000
  I   I73       1.0  0.23534  0.52545  0.18886  1.0000
  I   I74       1.0  0.08902  0.13154  0.14335  1.0000
  I   I75       1.0  0.22678  0.02552  0.10185  1.0000
  I   I76       1.0  0.60412  0.38234  0.21700  1.0000
  I   I77       1.0  0.64567  0.43699  0.26275  1.0000
  I   I78       1.0  0.95685  0.92012  0.30234  1.0000
  I   I79       1.0  0.34432  0.91196  0.36366  1.0000
  I   I80       1.0  0.89538  0.41687  0.49309  1.0000
  I   I81       1.0  0.63295  0.19986  0.29010  1.0000
  I   I82       1.0  0.45206  0.76430  0.82191  1.0000
  I   I83       1.0  0.79865  0.51147  0.66418  1.0000
  I   I84       1.0  0.97088  0.49590  0.12219  1.0000
  I   I85       1.0  0.04914  0.26771  0.30293  1.0000
  I   I86       1.0  0.39748  0.44189  0.29006  1.0000
  I   I87       1.0  0.76275  0.23459  0.31922  1.0000
  I   I88       1.0  0.59014  0.82309  0.26738  1.0000
  I   I89       1.0  0.51771  0.74893  0.48248  1.0000
  I   I90       1.0  0.63895  0.17891  0.65216  1.0000
  I   I91       1.0  0.44329  0.55626  0.10807  1.0000
  I   I92       1.0  0.90952  0.06261  0.60333  1.0000
  I   I93       1.0  0.74495  0.54957  0.19670  1.0000
  I   I94       1.0  0.39441  0.66412  0.56390  1.0000
  I   I95       1.0  0.23287  0.30353  0.80382  1.0000
  I   I96       1.0  0.17032  0.18415  0.91875  1.0000
  I   I97       1.0  0.87276  0.78333  0.07871  1.0000
  I   I98       1.0  0.42170  0.99666  0.65737  1.0000
  I   I99       1.0  0.48966  0.06439  0.45688  1.0000
  I   I100      1.0  0.81602  0.19670  0.19605  1.0000
  I   I101      1.0  0.87292  0.18791  0.12511  1.0000
  I   I102      1.0  0.30585  0.75275  0.78172  1.0000
  I   I103      1.0  0.91554  0.85899  0.91423  1.0000
  I   I104      1.0  0.94139  0.90348  0.09619  1.0000
  I   I105      1.0  0.36392  0.83510  0.84846  1.0000
  I   I106      1.0  0.04243  0.72546  0.42234  1.0000
  I   I107      1.0  0.87716  0.62074  0.65034  1.0000
  I   I108      1.0  0.15467  0.58137  0.44719  1.0000
  I   I109      1.0  0.50402  0.07485  0.18534  1.0000
  I   I110      1.0  0.23673  0.42868  0.53272  1.0000
  I   I111      1.0  0.12814  0.99375  0.61343  1.0000
  I   I112      1.0  0.04010  0.70703  0.89662  1.0000
  I   I113      1.0  0.12757  0.50615  0.63119  1.0000
  I   I114      1.0  0.36610  0.23963  0.93689  1.0000
  I   I115      1.0  0.83237  0.83795  0.53292  1.0000
  I   I116      1.0  0.86326  0.81953  0.42451  1.0000
  I   I117      1.0  0.08141  0.18194  0.63784  1.0000
  I   I118      1.0  0.54880  0.45159  0.89821  1.0000
  I   I119      1.0  0.66035  0.47035  0.83123  1.0000
  I   I120      1.0  0.00560  0.06734  0.19675  1.0000
  I   I121      1.0  0.20040  0.61868  0.17265  1.0000
  I   I122      1.0  0.93763  0.54627  0.43489  1.0000
  I   I123      1.0  0.12168  0.13436  0.03356  1.0000
  I   I124      1.0  0.85210  0.33968  0.14087  1.0000
  I   I125      1.0  0.53809  0.40288  0.25763  1.0000
  I   I126      1.0  0.01409  0.91653  0.36237  1.0000
  I   I127      1.0  0.34303  0.93513  0.23703  1.0000
  I   I128      1.0  0.86205  0.30920  0.54984  1.0000
  I   I129      1.0  0.61999  0.15151  0.08309  1.0000
  I   I130      1.0  0.98721  0.56196  0.02919  1.0000
  I   I131      1.0  0.52387  0.68261  0.86672  1.0000
  I   I132      1.0  0.81388  0.47717  0.77613  1.0000
  I   I133      1.0  0.70043  0.23305  0.28181  1.0000
  I   I134      1.0  0.36584  0.53908  0.27679  1.0000
  I   I135      1.0  0.40510  0.49408  0.35871  1.0000
  I   I136      1.0  0.57766  0.28875  0.77538  1.0000
  I   I137      1.0  0.65023  0.82888  0.11146  1.0000
  I   I138      1.0  0.56106  0.77035  0.55031  1.0000
  I   I139      1.0  0.38961  0.58761  0.20848  1.0000
  I   I140      1.0  0.85893  0.10841  0.52177  1.0000
  I   I141      1.0  0.72858  0.60794  0.12403  1.0000
  I   I142      1.0  0.35245  0.71055  0.66251  1.0000
  I   I143      1.0  0.16502  0.35852  0.82564  1.0000
  I   I144      1.0  0.04555  0.27413  0.02364  1.0000
  I   I145      1.0  0.47631  0.95033  0.72268  1.0000
  I   I146      1.0  0.46157  0.17462  0.59369  1.0000
  I   I147      1.0  0.81915  0.74384  0.03840  1.0000
  I   I148      1.0  0.80024  0.19400  0.06839  1.0000
  I   I149      1.0  0.26411  0.81104  0.86199  1.0000
  I   I150      1.0  0.30325  0.15478  0.32527  1.0000
  I   I151      1.0  0.00728  0.85151  0.05785  1.0000
  I   I152      1.0  0.41134  0.48641  0.81377  1.0000
  I   I153      1.0  0.36405  0.90456  0.95750  1.0000
  I   I154      1.0  0.50943  0.13140  0.75939  1.0000
  I   I155      1.0  0.46965  0.26338  0.67399  1.0000
  I   I156      1.0  0.08959  0.70178  0.53557  1.0000
  I   I157      1.0  0.54876  0.98522  0.13167  1.0000
  I   I158      1.0  0.13971  0.97377  0.75981  1.0000
  I   I159      1.0  0.56488  0.09939  0.16206  1.0000
  I   I160      1.0  0.99182  0.77224  0.87081  1.0000
  I   I161      1.0  0.41078  0.18408  0.98969  1.0000
  I   I162      1.0  0.98119  0.76260  0.68766  1.0000
  I   I163      1.0  0.89285  0.75926  0.36672  1.0000
  I   I164      1.0  0.07999  0.20239  0.75404  1.0000
  I   I165      1.0  0.99009  0.12536  0.59693  1.0000
  I   I166      1.0  0.64784  0.42108  0.89265  1.0000
  I   I167      1.0  0.80410  0.89641  0.93857  1.0000
  I   I168      1.0  0.05294  0.66063  0.98688  1.0000
  I   I169      1.0  0.98988  0.49839  0.47859  1.0000
  I   I170      1.0  0.92985  0.50095  0.53375  1.0000
  I   I171      1.0  0.24271  0.55896  0.09085  1.0000
  I   I172      1.0  0.86058  0.32380  0.26595  1.0000
  I   I173      1.0  0.99330  0.90236  0.21660  1.0000
  I   I174      1.0  0.80854  0.38920  0.28969  1.0000
  I   I175      1.0  0.89967  0.27135  0.45345  1.0000
  I   I176      1.0  0.62095  0.20272  0.16002  1.0000
  I   I177      1.0  0.21861  0.71691  0.68443  1.0000
  I   I178      1.0  0.53400  0.61854  0.87002  1.0000
  I   I179      1.0  0.77543  0.54462  0.78532  1.0000
  I   I180      1.0  0.00960  0.53134  0.14698  1.0000
  I   I181      1.0  0.02597  0.21796  0.28108  1.0000
  I   I182      1.0  0.42250  0.41069  0.38864  1.0000
  I   I183      1.0  0.71627  0.21064  0.50975  1.0000
  I   I184      1.0  0.61759  0.78950  0.08938  1.0000
  I   I185      1.0  0.57472  0.71522  0.61162  1.0000
  I   I186      1.0  0.56458  0.24439  0.73759  1.0000
  I   I187      1.0  0.86460  0.04149  0.59868  1.0000
  I   I188      1.0  0.72258  0.55424  0.07514  1.0000
  I   I189      1.0  0.43260  0.60671  0.24351  1.0000
  I   I190      1.0  0.12886  0.33443  0.90800  1.0000
  I   I191      1.0  0.27406  0.16591  0.80082  1.0000
  I   I192      1.0  0.43217  0.67614  0.65141  1.0000
  I   I193      1.0  0.39475  0.00786  0.76056  1.0000
  I   I194      1.0  0.21090  0.21516  0.82360  1.0000
  I   I195      1.0  0.87362  0.74416  0.98466  1.0000
  I   I196      1.0  0.88045  0.24843  0.02425  1.0000
  I   I197      1.0  0.55626  0.14691  0.78851  1.0000
  I   I198      1.0  0.32428  0.19603  0.39538  1.0000
  I   I199      1.0  0.97369  0.92282  0.01480  1.0000
  I   I200      1.0  0.50779  0.34029  0.83727  1.0000
  I   I201      1.0  0.33925  0.87939  0.04480  1.0000
  I   I202      1.0  0.86569  0.67616  0.56973  1.0000
  I   I203      1.0  0.88890  0.19621  0.36945  1.0000
  I   I204      1.0  0.11716  0.64684  0.41584  1.0000
  I   I205      1.0  0.13306  0.49381  0.36549  1.0000
  I   I206      1.0  0.05788  0.02530  0.58644  1.0000
  I   I207      1.0  0.56403  0.03838  0.12585  1.0000
  I   I208      1.0  0.63835  0.94798  0.67840  1.0000
  I   I209      1.0  0.34490  0.19089  0.93918  1.0000
  I   I210      1.0  0.02335  0.73228  0.76960  1.0000
  I   I211      1.0  0.91134  0.82427  0.44288  1.0000
  I   I212      1.0  0.34907  0.05313  0.03643  1.0000
  I   I213      1.0  0.94862  0.14406  0.43137  1.0000
  I   I214      1.0  0.59566  0.48024  0.89949  1.0000
  I   I215      1.0  0.77908  0.87285  0.04111  1.0000
  I   I216      1.0  0.09876  0.70365  0.96603  1.0000
  I   I217      1.0  0.91732  0.50151  0.40288  1.0000
  I   I218      1.0  0.18632  0.06531  0.18923  1.0000
  I   I219      1.0  0.17719  0.57173  0.18530  1.0000
  I   I220      1.0  0.53839  0.43507  0.15524  1.0000
  I   I221      1.0  0.04660  0.85876  0.29502  1.0000
  I   I222      1.0  0.79031  0.35096  0.24680  1.0000
  I   I223      1.0  0.94913  0.36812  0.49863  1.0000
  I   I224      1.0  0.62149  0.13639  0.20437  1.0000
  I   I225      1.0  0.39129  0.92997  0.33227  1.0000
  I   I226      1.0  0.47530  0.66839  0.79423  1.0000
  I   I227      1.0  0.85623  0.57032  0.77843  1.0000
  I   I228      1.0  0.94241  0.54202  0.03384  1.0000
  I   I229      1.0  0.03413  0.26945  0.20531  1.0000
  I   I230      1.0  0.42470  0.49314  0.24660  1.0000
  I   I231      1.0  0.68434  0.28714  0.51296  1.0000
  I   I232      1.0  0.52203  0.84442  0.28333  1.0000
  I   I233      1.0  0.56337  0.68438  0.50931  1.0000
  I   I234      1.0  0.63122  0.27466  0.68395  1.0000
  I   I235      1.0  0.57328  0.06316  0.87517  1.0000
  I   I236      1.0  0.75714  0.65141  0.14568  1.0000
  I   I237      1.0  0.39122  0.64743  0.15920  1.0000
  I   I238      1.0  0.10454  0.38366  0.81034  1.0000
  I   I239      1.0  0.13742  0.24707  0.87956  1.0000
  I   I240      1.0  0.46035  0.64400  0.52991  1.0000
  I   I241      1.0  0.50971  0.92734  0.60678  1.0000
  I   I242      1.0  0.49031  0.10262  0.56884  1.0000
  I   I243      1.0  0.81773  0.79708  0.11493  1.0000
  I   I244      1.0  0.80146  0.25681  0.10897  1.0000
  I   I245      1.0  0.28119  0.65930  0.44462  1.0000
  I   I246      1.0  0.31573  0.19504  0.25420  1.0000
  I   I247      1.0  0.95287  0.85255  0.01007  1.0000
  I   I248      1.0  0.47200  0.43182  0.74750  1.0000
  I   I249      1.0  0.37756  0.88522  0.82329  1.0000
  I   I250      1.0  0.80816  0.68071  0.43615  1.0000
  I   I251      1.0  0.46158  0.33099  0.62262  1.0000
  I   I252      1.0  0.05814  0.65869  0.46531  1.0000
  I   I253      1.0  0.24676  0.38504  0.43127  1.0000
  I   I254      1.0  0.07704  0.02896  0.73835  1.0000
  I   I255      1.0  0.49664  0.13341  0.14890  1.0000
  I   I256      1.0  0.16861  0.54342  0.66309  1.0000
  I   I257      1.0  0.32518  0.24202  0.03118  1.0000
  I   I258      1.0  0.94443  0.75612  0.79664  1.0000
  I   I259      1.0  0.91972  0.75930  0.47050  1.0000
  I   I260      1.0  0.01378  0.20858  0.70387  1.0000
  I   I261      1.0  0.90040  0.13325  0.37037  1.0000
  I   I262      1.0  0.64440  0.42845  0.76033  1.0000
  I   I263      1.0  0.73834  0.81785  0.96220  1.0000
  I   I264      1.0  0.08060  0.68255  0.07099  1.0000
  I   I265      1.0  0.98677  0.45798  0.42349  1.0000
  I   I266      1.0  0.13331  0.06458  0.15271  1.0000
  I   I267      1.0  0.26012  0.56937  0.20406  1.0000
  I   I268      1.0  0.54708  0.45560  0.27989  1.0000
  I   I269      1.0  0.95964  0.97745  0.31773  1.0000
  I   I270      1.0  0.82433  0.43116  0.07878  1.0000
  I   I271      1.0  0.85002  0.33721  0.44653  1.0000
  I   I272      1.0  0.67392  0.15369  0.21884  1.0000
  I   I273      1.0  0.40801  0.87102  0.27235  1.0000
  I   I274      1.0  0.46170  0.71406  0.89089  1.0000
  I   I275      1.0  0.81232  0.55641  0.86906  1.0000
  I   I276      1.0  0.94278  0.57232  0.11257  1.0000
  I   I277      1.0  0.98489  0.29393  0.33332  1.0000
  I   I278      1.0  0.34795  0.49665  0.34853  1.0000
  I   I279      1.0  0.70106  0.21414  0.39929  1.0000
  I   I280      1.0  0.69095  0.76223  0.07839  1.0000
  I   I281      1.0  0.59101  0.65241  0.40833  1.0000
  I   I282      1.0  0.63416  0.21385  0.74875  1.0000
  I   I283      1.0  0.53593  0.12624  0.90931  1.0000
  I   I284      1.0  0.79286  0.56944  0.14318  1.0000
  I   I285      1.0  0.45847  0.60555  0.12612  1.0000
  I   I286      1.0  0.20522  0.31553  0.92790  1.0000
  I   I287      1.0  0.10384  0.20474  0.97621  1.0000
  I   I288      1.0  0.34218  0.65530  0.67512  1.0000
  I   I289      1.0  0.45422  0.93138  0.61622  1.0000
  I   I290      1.0  0.27824  0.22395  0.81598  1.0000
  I   I291      1.0  0.45111  0.06990  0.61272  1.0000
  I   I292      1.0  0.85737  0.25718  0.12905  1.0000
  I   I293      1.0  0.26892  0.66077  0.29665  1.0000
  I   I294      1.0  0.25331  0.20764  0.24823  1.0000
  I   I295      1.0  0.95387  0.88180  0.84168  1.0000
  I   I296      1.0  0.48792  0.46897  0.82534  1.0000
  I   I297      1.0  0.40617  0.84954  0.04819  1.0000
  I   I298      1.0  0.49113  0.10797  0.87335  1.0000
  I   I299      1.0  0.79806  0.69351  0.58836  1.0000
  I   I300      1.0  0.02291  0.72123  0.53614  1.0000
  I   I301      1.0  0.53878  0.00834  0.25103  1.0000
  I   I302      1.0  0.19418  0.46880  0.39499  1.0000
  I   I303      1.0  0.09031  0.95984  0.56190  1.0000
  I   I304      1.0  0.99909  0.68865  0.81975  1.0000
  I   I305      1.0  0.63031  0.92719  0.80782  1.0000
  I   I306      1.0  0.35868  0.44097  0.40957  1.0000
  I   I307      1.0  0.90078  0.81590  0.57010  1.0000
  I   I308      1.0  0.26729  0.09765  0.05517  1.0000
  I   I309      1.0  0.93607  0.18718  0.57283  1.0000
  I   I310      1.0  0.58732  0.44941  0.80010  1.0000
  I   I311      1.0  0.74862  0.84292  0.07329  1.0000
  I   I312      1.0  0.06582  0.02620  0.09407  1.0000
  I   I313      1.0  0.21490  0.47852  0.22587  1.0000
  I   I314      1.0  0.02479  0.44632  0.56974  1.0000
  I   I315      1.0  0.15905  0.12481  0.13617  1.0000
  I   I316      1.0  0.80303  0.39666  0.16123  1.0000
  I   I317      1.0  0.61372  0.39428  0.32116  1.0000
  I   I318      1.0  0.01619  0.94712  0.25778  1.0000
  I   I319      1.0  0.16793  0.69835  0.65340  1.0000
  I   I320      1.0  0.91111  0.37265  0.39074  1.0000
  I   I321      1.0  0.66562  0.12684  0.30252  1.0000
  I   I322      1.0  0.50735  0.70781  0.74395  1.0000
  I   I323      1.0  0.87693  0.52300  0.88188  1.0000
  I   I324      1.0  0.01329  0.48466  0.06315  1.0000
  I   I325      1.0  0.97087  0.26320  0.24993  1.0000
  I   I326      1.0  0.38978  0.46584  0.46618  1.0000
  I   I327      1.0  0.65190  0.28048  0.42142  1.0000
  I   I328      1.0  0.56518  0.78470  0.20986  1.0000
  I   I329      1.0  0.52658  0.70029  0.38516  1.0000
  I   I330      1.0  0.58666  0.24977  0.64302  1.0000
  I   I331      1.0  0.38890  0.60809  0.05659  1.0000
  I   I332      1.0  0.60638  0.09538  0.73614  1.0000
  I   I333      1.0  0.76459  0.59359  0.02360  1.0000
  I   I334      1.0  0.47933  0.60427  0.61669  1.0000
  I   I335      1.0  0.16725  0.30345  0.78986  1.0000
  I   I336      1.0  0.10087  0.21630  0.09674  1.0000
  I   I337      1.0  0.48229  0.99170  0.61885  1.0000
  I   I338      1.0  0.23009  0.21717  0.70484  1.0000
  I   I339      1.0  0.51038  0.03485  0.56830  1.0000
  I   I340      1.0  0.85636  0.20309  0.02852  1.0000
  I   I341      1.0  0.33903  0.79195  0.84750  1.0000
  I   I342      1.0  0.28631  0.15103  0.46898  1.0000
  I   I343      1.0  0.91414  0.91263  0.97218  1.0000
  I   I344      1.0  0.44497  0.41607  0.85640  1.0000
  I   I345      1.0  0.38527  0.81373  0.97788  1.0000
  I   I346      1.0  0.55513  0.14552  0.67561  1.0000
  I   I347      1.0  0.81097  0.72283  0.50350  1.0000
  I   I348      1.0  0.07845  0.59596  0.45219  1.0000
  I   I349      1.0  0.53270  0.09412  0.05252  1.0000
  I   I350      1.0  0.25572  0.44817  0.43553  1.0000
  I   I351      1.0  0.06060  0.98126  0.67680  1.0000
  I   I352      1.0  0.97627  0.72957  0.92362  1.0000
  I   I353      1.0  0.18967  0.47124  0.70009  1.0000
  I   I354      1.0  0.36772  0.38203  0.35735  1.0000
  I   I355      1.0  0.86058  0.87808  0.49510  1.0000
  I   I356      1.0  0.03819  0.25727  0.65683  1.0000
  I   I357      1.0  0.98993  0.15164  0.50014  1.0000
  I   I358      1.0  0.02603  0.73383  0.01461  1.0000
  I   I359      1.0  0.80569  0.81647  0.99241  1.0000
  I   I360      1.0  0.00483  0.01881  0.12954  1.0000
  I   I361      1.0  0.18211  0.53720  0.29642  1.0000
  I   I362      1.0  0.04819  0.40211  0.47154  1.0000
  I   I363      1.0  0.19297  0.99857  0.15327  1.0000
  I   I364      1.0  0.87410  0.38539  0.17215  1.0000
  I   I365      1.0  0.58927  0.44634  0.20049  1.0000
  I   I366      1.0  0.00349  0.86153  0.37447  1.0000
  I   I367      1.0  0.20297  0.72537  0.53838  1.0000
  I   I368      1.0  0.90123  0.34443  0.53940  1.0000
  I   I369      1.0  0.58753  0.17586  0.27875  1.0000
  I   I370      1.0  0.47101  0.65515  0.93399  1.0000
  I   I371      1.0  0.86579  0.49474  0.76552  1.0000
  I   I372      1.0  0.05785  0.50002  0.01095  1.0000
  I   I373      1.0  0.06466  0.20760  0.37830  1.0000
  I   I374      1.0  0.36187  0.49217  0.20995  1.0000
  I   I375      1.0  0.72738  0.25744  0.40994  1.0000
  I   I376      1.0  0.67531  0.77993  0.20902  1.0000
  I   I377      1.0  0.59595  0.70932  0.46955  1.0000
  I   I378      1.0  0.56528  0.20142  0.63746  1.0000
  I   I379      1.0  0.42106  0.64082  0.03163  1.0000
  I   I380      1.0  0.83724  0.11091  0.64843  1.0000
  I   I381      1.0  0.77556  0.51917  0.07156  1.0000
  I   I382      1.0  0.39069  0.66979  0.73441  1.0000
  I   I383      1.0  0.21372  0.26966  0.88872  1.0000
  I   I384      1.0  0.09494  0.27880  0.08848  1.0000
