data_image0
_chemical_formula_structural       Ti96I384
_chemical_formula_sum              "Ti96 I384"
_cell_length_a       75.181
_cell_length_b       75.1041
_cell_length_c       36.7838
_cell_angle_alpha    88.7757
_cell_angle_beta     88.7757
_cell_angle_gamma    62.1586

_space_group_name_H-M_alt    "P 1"
_space_group_IT_number       1

loop_
  _space_group_symop_operation_xyz
  'x, y, z'

loop_
  _atom_site_type_symbol
  _atom_site_label
  _atom_site_symmetry_multiplicity
  _atom_site_fract_x
  _atom_site_fract_y
  _atom_site_fract_z
  _atom_site_occupancy
  Ti  Ti1       1.0  0.72480  0.20802  0.86198  1.0000
  Ti  Ti2       1.0  0.47290  0.69965  0.54663  1.0000
  Ti  Ti3       1.0  0.11623  0.99340  0.36952  1.0000
  Ti  Ti4       1.0  0.13492  0.20234  0.08371  1.0000
  Ti  Ti5       1.0  0.22873  0.06376  0.89477  1.0000
  Ti  Ti6       1.0  0.43727  0.43225  0.27782  1.0000
  Ti  Ti7       1.0  0.69126  0.09192  0.01527  1.0000
  Ti  Ti8       1.0  0.30420  0.75806  0.21138  1.0000
  Ti  Ti9       1.0  0.15251  0.44642  0.62487  1.0000
  Ti  Ti10      1.0  0.57571  0.77069  0.36202  1.0000
  Ti  Ti11      1.0  0.33224  0.00634  0.73776  1.0000
  Ti  Ti12      1.0  0.00031  0.12745  0.38366  1.0000
  Ti  Ti13      1.0  0.75995  0.71159  0.45033  1.0000
  Ti  Ti14      1.0  0.15189  0.24918  0.13835  1.0000
  Ti  Ti15      1.0  0.85479  0.48721  0.69757  1.0000
  Ti  Ti16      1.0  0.23593  0.56677  0.39748  1.0000
  Ti  Ti17      1.0  0.11113  0.92554  0.55169  1.0000
  Ti  Ti18      1.0  0.32456  0.14442  0.32307  1.0000
  Ti  Ti19      1.0  0.88110  0.12257  0.81128  1.0000
  Ti  Ti20      1.0  0.14158  0.51632  0.98754  1.0000
  Ti  Ti21      1.0  0.29877  0.73240  0.12801  1.0000
  Ti  Ti22      1.0  0.76734  0.36331  0.72384  1.0000
  Ti  Ti23      1.0  0.23653  0.67578  0.81026  1.0000
  Ti  Ti24      1.0  0.73782  0.30837  0.31969  1.0000
  Ti  Ti25      1.0  0.71467  0.54719  0.38916  1.0000
  Ti  Ti26      1.0  0.92134  0.91435  0.83502  1.0000
  Ti  Ti27      1.0  0.45046  0.55789  0.05666  1.0000
  Ti  Ti28      1.0  0.47179  0.13433  0.80770  1.0000
  Ti  Ti29      1.0  0.28367  0.94905  0.24714  1.0000
  Ti  Ti30      1.0  0.29252  0.88123  0.05226  1.0000
  Ti  Ti31      1.0  0.54018  0.44522  0.23580  1.0000
  Ti  Ti32      1.0  0.56447  0.74330  0.14564  1.0000
  Ti  Ti33      1.0  0.56308  0.36621  0.60227  1.0000
  Ti  Ti34      1.0  0.82184  0.59236  0.08162  1.0000
  Ti  Ti35      1.0  0.70154  0.74851  0.12925  1.0000
  Ti  Ti36      1.0  0.34148  0.22853  0.53937  1.0000
  Ti  Ti37      1.0  0.91923  0.56780  0.69885  1.0000
  Ti  Ti38      1.0  0.21384  0.41398  0.25371  1.0000
  Ti  Ti39      1.0  0.91627  0.34052  0.81228  1.0000
  Ti  Ti40      1.0  0.63316  0.73677  0.34600  1.0000
  Ti  Ti41      1.0  0.90496  0.55033  0.42114  1.0000
  Ti  Ti42      1.0  0.88718  0.68608  0.27534  1.0000
  Ti  Ti43      1.0  0.01519  0.85720  0.59687  1.0000
  Ti  Ti44      1.0  0.88352  0.35165  0.31069  1.0000
  Ti  Ti45      1.0  0.48736  0.10275  0.20852  1.0000
  Ti  Ti46      1.0  0.74750  0.92348  0.03247  1.0000
  Ti  Ti47      1.0  0.12311  0.87232  0.82540  1.0000
  Ti  Ti48      1.0  0.97672  0.12005  0.70953  1.0000
  Ti  Ti49      1.0  0.01209  0.89355  0.55222  1.0000
  Ti  Ti50      1.0  0.08983  0.17622  0.36285  1.0000
  Ti  Ti51      1.0  0.46872  0.65637  0.56276  1.0000
  Ti  Ti52      1.0  0.54558  0.41689  0.82402  1.0000
  Ti  Ti53      1.0  0.21699  0.81800  0.67204  1.0000
  Ti  Ti54      1.0  0.41172  0.92287  0.25136  1.0000
  Ti  Ti55      1.0  0.50479  0.75521  0.09926  1.0000
  Ti  Ti56      1.0  0.63688  0.85274  0.02020  1.0000
  Ti  Ti57      1.0  0.20006  0.43551  0.62523  1.0000
  Ti  Ti58      1.0  0.35694  0.95990  0.48516  1.0000
  Ti  Ti59      1.0  0.46657  0.54017  0.65160  1.0000
  Ti  Ti60      1.0  0.98134  0.14611  0.48763  1.0000
  Ti  Ti61      1.0  0.75080  0.80791  0.79343  1.0000
  Ti  Ti62      1.0  0.71117  0.75717  0.48153  1.0000
  Ti  Ti63      1.0  0.14289  0.56877  0.98144  1.0000
  Ti  Ti64      1.0  0.35207  0.10745  0.28024  1.0000
  Ti  Ti65      1.0  0.00162  0.90696  0.22285  1.0000
  Ti  Ti66      1.0  0.35549  0.22306  0.27084  1.0000
  Ti  Ti67      1.0  0.17179  0.17917  0.30698  1.0000
  Ti  Ti68      1.0  0.47538  0.27775  0.22128  1.0000
  Ti  Ti69      1.0  0.91316  0.87558  0.88556  1.0000
  Ti  Ti70      1.0  0.20316  0.13103  0.26578  1.0000
  Ti  Ti71      1.0  0.93441  0.72251  0.10952  1.0000
  Ti  Ti72      1.0  0.14057  0.91133  0.80240  1.0000
  Ti  Ti73      1.0  0.43523  0.51525  0.01065  1.0000
  Ti  Ti74      1.0  0.74993  0.51424  0.34534  1.0000
  Ti  Ti75      1.0  0.41802  0.21173  0.97029  1.0000
  Ti  Ti76      1.0  0.40347  0.07765  0.74876  1.0000
  Ti  Ti77      1.0  0.80887  0.45916  0.68842  1.0000
  Ti  Ti78      1.0  0.24064  0.98149  0.21139  1.0000
  Ti  Ti79      1.0  0.33681  0.83866  0.64709  1.0000
  Ti  Ti80      1.0  0.37898  0.97649  0.97071  1.0000
  Ti  Ti81      1.0  0.89636  0.60573  0.86261  1.0000
  Ti  Ti82      1.0  0.74521  0.40237  0.44156  1.0000
  Ti  Ti83      1.0  0.06547  0.42968  0.62319  1.0000
  Ti  Ti84      1.0  0.38891  0.20161  0.54787  1.0000
  Ti  Ti85      1.0  0.94789  0.52916  0.73917  1.0000
  Ti  Ti86      1.0  0.68672  0.05050  0.04443  1.0000
  Ti  Ti87      1.0  0.49010  0.10227  0.09440  1.0000
  Ti  Ti88      1.0  0.49166  0.21849  0.68414  1.0000
  Ti  Ti89      1.0  0.26613  0.47283  0.11320  1.0000
  Ti  Ti90      1.0  0.02901  0.49621  0.08469  1.0000
  Ti  Ti91      1.0  0.11212  0.91673  0.26643  1.0000
  Ti  Ti92      1.0  0.71617  0.25745  0.50642  1.0000
  Ti  Ti93      1.0  0.59991  0.47299  0.49388  1.0000
  Ti  Ti94      1.0  0.00169  0.07983  0.73707  1.0000
  Ti  Ti95      1.0  0.97057  0.31669  0.48688  1.0000
  Ti  Ti96      1.0  0.80467  0.31620  0.77851  1.0000
  I   I1        1.0  0.16262  0.86975  0.81592  1.0000
  I   I2        1.0  0.43927  0.73173  0.54428  1.0000
  I   I3        1.0  0.97626  0.89229  0.59058  1.0000
  I   I4        1.0  0.24424  0.78703  0.71247  1.0000
  I   I5        1.0  0.43109  0.46509  0.31905  1.0000
  I   I6        1.0  0.44069  0.89862  0.19912  1.0000
  I   I7        1.0  0.30848  0.78956  0.21379  1.0000
  I   I8        1.0  0.66278  0.81349  0.00405  1.0000
  I   I9        1.0  0.17383  0.44286  0.56326  1.0000
  I   I10       1.0  0.53934  0.77495  0.34723  1.0000
  I   I11       1.0  0.29517  0.04343  0.74415  1.0000
  I   I12       1.0  0.24723  0.05790  0.83115  1.0000
  I   I13       1.0  0.73947  0.74183  0.53233  1.0000
  I   I14       1.0  0.15236  0.54038  0.03523  1.0000
  I   I15       1.0  0.76964  0.47880  0.67570  1.0000
  I   I16       1.0  0.57484  0.78832  0.42429  1.0000
  I   I17       1.0  0.31684  0.23159  0.27325  1.0000
  I   I18       1.0  0.31253  0.12055  0.29491  1.0000
  I   I19       1.0  0.17215  0.48122  0.98129  1.0000
  I   I20       1.0  0.31598  0.98485  0.71583  1.0000
  I   I21       1.0  0.28963  0.74977  0.27364  1.0000
  I   I22       1.0  0.23732  0.64105  0.82889  1.0000
  I   I23       1.0  0.96808  0.72001  0.14274  1.0000
  I   I24       1.0  0.19546  0.16708  0.36880  1.0000
  I   I25       1.0  0.71052  0.58129  0.40648  1.0000
  I   I26       1.0  0.39537  0.21696  0.91320  1.0000
  I   I27       1.0  0.45852  0.56752  0.99194  1.0000
  I   I28       1.0  0.50960  0.11088  0.78553  1.0000
  I   I29       1.0  0.22679  0.02399  0.20385  1.0000
  I   I30       1.0  0.30822  0.89404  0.10396  1.0000
  I   I31       1.0  0.36187  0.01199  0.99888  1.0000
  I   I32       1.0  0.92411  0.57184  0.84620  1.0000
  I   I33       1.0  0.32708  0.85040  0.72318  1.0000
  I   I34       1.0  0.70430  0.75305  0.05813  1.0000
  I   I35       1.0  0.36658  0.19249  0.59646  1.0000
  I   I36       1.0  0.83282  0.58046  0.15075  1.0000
  I   I37       1.0  0.92767  0.52559  0.67968  1.0000
  I   I38       1.0  0.91765  0.31484  0.76082  1.0000
  I   I39       1.0  0.96356  0.49116  0.75266  1.0000
  I   I40       1.0  0.91744  0.32533  0.27447  1.0000
  I   I41       1.0  0.01058  0.52778  0.04061  1.0000
  I   I42       1.0  0.66524  0.70269  0.33624  1.0000
  I   I43       1.0  0.32234  0.98878  0.50532  1.0000
  I   I44       1.0  0.85787  0.38610  0.27907  1.0000
  I   I45       1.0  0.51841  0.10687  0.19865  1.0000
  I   I46       1.0  0.99687  0.33151  0.49443  1.0000
  I   I47       1.0  0.13977  0.83734  0.79657  1.0000
  I   I48       1.0  0.01255  0.11229  0.75501  1.0000
  I   I49       1.0  0.05006  0.85003  0.55697  1.0000
  I   I50       1.0  0.44616  0.68574  0.50797  1.0000
  I   I51       1.0  0.47771  0.70913  0.48037  1.0000
  I   I52       1.0  0.35309  0.97545  0.92616  1.0000
  I   I53       1.0  0.21970  0.82815  0.60100  1.0000
  I   I54       1.0  0.41267  0.89247  0.29118  1.0000
  I   I55       1.0  0.68929  0.06597  0.96970  1.0000
  I   I56       1.0  0.26687  0.76272  0.17692  1.0000
  I   I57       1.0  0.98342  0.31991  0.41086  1.0000
  I   I58       1.0  0.64091  0.74606  0.40908  1.0000
  I   I59       1.0  0.50002  0.52624  0.61594  1.0000
  I   I60       1.0  0.97283  0.17015  0.54950  1.0000
  I   I61       1.0  0.76008  0.69191  0.38669  1.0000
  I   I62       1.0  0.68324  0.76136  0.53403  1.0000
  I   I63       1.0  0.11631  0.60364  0.01852  1.0000
  I   I64       1.0  0.20913  0.58734  0.34672  1.0000
  I   I65       1.0  0.99305  0.89311  0.28294  1.0000
  I   I66       1.0  0.36910  0.19654  0.32030  1.0000
  I   I67       1.0  0.87885  0.12096  0.88443  1.0000
  I   I68       1.0  0.13666  0.50378  0.05217  1.0000
  I   I69       1.0  0.93978  0.83914  0.90502  1.0000
  I   I70       1.0  0.17509  0.16200  0.23113  1.0000
  I   I71       1.0  0.24181  0.69911  0.85316  1.0000
  I   I72       1.0  0.11468  0.90602  0.76914  1.0000
  I   I73       1.0  0.42864  0.53017  0.08812  1.0000
  I   I74       1.0  0.94469  0.93219  0.82262  1.0000
  I   I75       1.0  0.91918  0.90217  0.76203  1.0000
  I   I76       1.0  0.82489  0.42482  0.72615  1.0000
  I   I77       1.0  0.88109  0.48167  0.64021  1.0000
  I   I78       1.0  0.72813  0.18047  0.81446  1.0000
  I   I79       1.0  0.55792  0.35290  0.66725  1.0000
  I   I80       1.0  0.56356  0.46184  0.25026  1.0000
  I   I81       1.0  0.58591  0.73239  0.20891  1.0000
  I   I82       1.0  0.75076  0.39876  0.36860  1.0000
  I   I83       1.0  0.09079  0.41904  0.57023  1.0000
  I   I84       1.0  0.39457  0.16872  0.50378  1.0000
  I   I85       1.0  0.94299  0.57252  0.74752  1.0000
  I   I86       1.0  0.37133  0.20880  0.20525  1.0000
  I   I87       1.0  0.91521  0.37002  0.77277  1.0000
  I   I88       1.0  0.59722  0.74238  0.31580  1.0000
  I   I89       1.0  0.91919  0.56251  0.36756  1.0000
  I   I90       1.0  0.06552  0.47525  0.07018  1.0000
  I   I91       1.0  0.10988  0.88232  0.28216  1.0000
  I   I92       1.0  0.69324  0.29690  0.51401  1.0000
  I   I93       1.0  0.90997  0.35220  0.35868  1.0000
  I   I94       1.0  0.01324  0.09192  0.66646  1.0000
  I   I95       1.0  0.74878  0.90479  0.09238  1.0000
  I   I96       1.0  0.80162  0.35246  0.79004  1.0000
  I   I97       1.0  0.14406  0.96385  0.39888  1.0000
  I   I98       1.0  0.71301  0.24915  0.84203  1.0000
  I   I99       1.0  0.48610  0.62886  0.51262  1.0000
  I   I100      1.0  0.15758  0.17683  0.03720  1.0000
  I   I101      1.0  0.47459  0.25803  0.70015  1.0000
  I   I102      1.0  0.25648  0.03434  0.93825  1.0000
  I   I103      1.0  0.65621  0.08782  0.05713  1.0000
  I   I104      1.0  0.59078  0.72169  0.08939  1.0000
  I   I105      1.0  0.18247  0.41825  0.67639  1.0000
  I   I106      1.0  0.02515  0.09279  0.35132  1.0000
  I   I107      1.0  0.57738  0.79446  0.31005  1.0000
  I   I108      1.0  0.02396  0.14257  0.35470  1.0000
  I   I109      1.0  0.81627  0.48650  0.72356  1.0000
  I   I110      1.0  0.79793  0.70263  0.46138  1.0000
  I   I111      1.0  0.13748  0.58448  0.90707  1.0000
  I   I112      1.0  0.35575  0.10231  0.21542  1.0000
  I   I113      1.0  0.04106  0.89641  0.20181  1.0000
  I   I114      1.0  0.10246  0.94579  0.48998  1.0000
  I   I115      1.0  0.16570  0.21604  0.31336  1.0000
  I   I116      1.0  0.22357  0.14920  0.27350  1.0000
  I   I117      1.0  0.44220  0.30628  0.24660  1.0000
  I   I118      1.0  0.75174  0.40178  0.74004  1.0000
  I   I119      1.0  0.16650  0.14078  0.31347  1.0000
  I   I120      1.0  0.12260  0.95219  0.79383  1.0000
  I   I121      1.0  0.45355  0.52212  0.95110  1.0000
  I   I122      1.0  0.70168  0.55871  0.31829  1.0000
  I   I123      1.0  0.45271  0.20931  0.95626  1.0000
  I   I124      1.0  0.26219  0.90756  0.01981  1.0000
  I   I125      1.0  0.39149  0.10776  0.78758  1.0000
  I   I126      1.0  0.21369  0.97082  0.22611  1.0000
  I   I127      1.0  0.54785  0.35494  0.54942  1.0000
  I   I128      1.0  0.13320  0.22451  0.14296  1.0000
  I   I129      1.0  0.92458  0.60533  0.91487  1.0000
  I   I130      1.0  0.36244  0.24222  0.59225  1.0000
  I   I131      1.0  0.70879  0.40311  0.44975  1.0000
  I   I132      1.0  0.73445  0.73043  0.16840  1.0000
  I   I133      1.0  0.95631  0.33037  0.82386  1.0000
  I   I134      1.0  0.24089  0.38213  0.28967  1.0000
  I   I135      1.0  0.36397  0.25097  0.27844  1.0000
  I   I136      1.0  0.91248  0.69063  0.32091  1.0000
  I   I137      1.0  0.51280  0.41066  0.81815  1.0000
  I   I138      1.0  0.28862  0.48975  0.12421  1.0000
  I   I139      1.0  0.10173  0.92654  0.20051  1.0000
  I   I140      1.0  0.75389  0.25252  0.48702  1.0000
  I   I141      1.0  0.59526  0.44829  0.54382  1.0000
  I   I142      1.0  0.98940  0.08068  0.80255  1.0000
  I   I143      1.0  0.10018  0.97664  0.33294  1.0000
  I   I144      1.0  0.79632  0.31111  0.70608  1.0000
  I   I145      1.0  0.76421  0.19787  0.87152  1.0000
  I   I146      1.0  0.49155  0.71406  0.58824  1.0000
  I   I147      1.0  0.13451  0.01901  0.37963  1.0000
  I   I148      1.0  0.54206  0.45168  0.83206  1.0000
  I   I149      1.0  0.20057  0.05349  0.87980  1.0000
  I   I150      1.0  0.43176  0.44313  0.20526  1.0000
  I   I151      1.0  0.57929  0.76724  0.14024  1.0000
  I   I152      1.0  0.34274  0.74337  0.22181  1.0000
  I   I153      1.0  0.17008  0.47667  0.62890  1.0000
  I   I154      1.0  0.02456  0.89000  0.63514  1.0000
  I   I155      1.0  0.36590  0.97159  0.74482  1.0000
  I   I156      1.0  0.00277  0.15240  0.44340  1.0000
  I   I157      1.0  0.85370  0.44993  0.67747  1.0000
  I   I158      1.0  0.11215  0.56347  0.96407  1.0000
  I   I159      1.0  0.73023  0.82833  0.85123  1.0000
  I   I160      1.0  0.36452  0.07103  0.30335  1.0000
  I   I161      1.0  0.11575  0.89000  0.58432  1.0000
  I   I162      1.0  0.33804  0.12361  0.38591  1.0000
  I   I163      1.0  0.86519  0.15844  0.78321  1.0000
  I   I164      1.0  0.49953  0.28010  0.26516  1.0000
  I   I165      1.0  0.30613  0.76678  0.10784  1.0000
  I   I166      1.0  0.84389  0.30406  0.75594  1.0000
  I   I167      1.0  0.19714  0.70015  0.81328  1.0000
  I   I168      1.0  0.74356  0.27710  0.28211  1.0000
  I   I169      1.0  0.71708  0.50471  0.35914  1.0000
  I   I170      1.0  0.75112  0.49805  0.28434  1.0000
  I   I171      1.0  0.48228  0.55120  0.08889  1.0000
  I   I172      1.0  0.43694  0.04001  0.75495  1.0000
  I   I173      1.0  0.23039  0.98508  0.14251  1.0000
  I   I174      1.0  0.32406  0.85198  0.02208  1.0000
  I   I175      1.0  0.50361  0.47188  0.23051  1.0000
  I   I176      1.0  0.53016  0.74860  0.18098  1.0000
  I   I177      1.0  0.37341  0.83475  0.64642  1.0000
  I   I178      1.0  0.77473  0.40833  0.47610  1.0000
  I   I179      1.0  0.07711  0.44920  0.66730  1.0000
  I   I180      1.0  0.36939  0.23530  0.50081  1.0000
  I   I181      1.0  0.98924  0.51434  0.70450  1.0000
  I   I182      1.0  0.69612  0.09087  0.08792  1.0000
  I   I183      1.0  0.51212  0.05967  0.08408  1.0000
  I   I184      1.0  0.51225  0.21743  0.62577  1.0000
  I   I185      1.0  0.25514  0.47295  0.18081  1.0000
  I   I186      1.0  0.91423  0.67377  0.22339  1.0000
  I   I187      1.0  0.71588  0.23713  0.55840  1.0000
  I   I188      1.0  0.87056  0.32556  0.31815  1.0000
  I   I189      1.0  0.47549  0.13320  0.15053  1.0000
  I   I190      1.0  0.74046  0.95744  0.06344  1.0000
  I   I191      1.0  0.05579  0.20594  0.38814  1.0000
  I   I192      1.0  0.10160  0.02228  0.31150  1.0000
  I   I193      1.0  0.32148  0.93069  0.21062  1.0000
  I   I194      1.0  0.08859  0.14621  0.33105  1.0000
  I   I195      1.0  0.08007  0.01557  0.40474  1.0000
  I   I196      1.0  0.10489  0.22439  0.04240  1.0000
  I   I197      1.0  0.39159  0.93992  0.51340  1.0000
  I   I198      1.0  0.45962  0.39409  0.28921  1.0000
  I   I199      1.0  0.53809  0.76885  0.09268  1.0000
  I   I200      1.0  0.65862  0.86676  0.99013  1.0000
  I   I201      1.0  0.11787  0.47482  0.61464  1.0000
  I   I202      1.0  0.46816  0.55285  0.71137  1.0000
  I   I203      1.0  0.92718  0.89670  0.93229  1.0000
  I   I204      1.0  0.96449  0.15207  0.35338  1.0000
  I   I205      1.0  0.74075  0.74930  0.42611  1.0000
  I   I206      1.0  0.16498  0.26943  0.10071  1.0000
  I   I207      1.0  0.80871  0.45125  0.61794  1.0000
  I   I208      1.0  0.26224  0.57738  0.38689  1.0000
  I   I209      1.0  0.08729  0.95050  0.60199  1.0000
  I   I210      1.0  0.31032  0.87880  0.65228  1.0000
  I   I211      1.0  0.21210  0.11599  0.19298  1.0000
  I   I212      1.0  0.11269  0.51534  0.95036  1.0000
  I   I213      1.0  0.88175  0.87755  0.92403  1.0000
  I   I214      1.0  0.74124  0.36268  0.67714  1.0000
  I   I215      1.0  0.27480  0.66460  0.78440  1.0000
  I   I216      1.0  0.58524  0.47189  0.42855  1.0000
  I   I217      1.0  0.68391  0.54717  0.42796  1.0000
  I   I218      1.0  0.43029  0.17336  0.98051  1.0000
  I   I219      1.0  0.39932  0.52885  0.98918  1.0000
  I   I220      1.0  0.88101  0.46547  0.74673  1.0000
  I   I221      1.0  0.25341  0.97458  0.28455  1.0000
  I   I222      1.0  0.38452  0.05775  0.74707  1.0000
  I   I223      1.0  0.54735  0.42997  0.16617  1.0000
  I   I224      1.0  0.47178  0.78697  0.09418  1.0000
  I   I225      1.0  0.54528  0.40221  0.61120  1.0000
  I   I226      1.0  0.76362  0.36455  0.46837  1.0000
  I   I227      1.0  0.68024  0.73053  0.13574  1.0000
  I   I228      1.0  0.31619  0.22813  0.59538  1.0000
  I   I229      1.0  0.14647  0.92000  0.56440  1.0000
  I   I230      1.0  0.21211  0.44380  0.29708  1.0000
  I   I231      1.0  0.88742  0.35012  0.86037  1.0000
  I   I232      1.0  0.12993  0.26818  0.19345  1.0000
  I   I233      1.0  0.91521  0.51147  0.43915  1.0000
  I   I234      1.0  0.02425  0.50929  0.14934  1.0000
  I   I235      1.0  0.04059  0.89735  0.51439  1.0000
  I   I236      1.0  0.63917  0.46214  0.49876  1.0000
  I   I237      1.0  0.13784  0.91548  0.31416  1.0000
  I   I238      1.0  0.93517  0.33653  0.51230  1.0000
  I   I239      1.0  0.75893  0.33738  0.76959  1.0000
  I   I240      1.0  0.96428  0.14724  0.65680  1.0000
  I   I241      1.0  0.71901  0.20682  0.93261  1.0000
  I   I242      1.0  0.46920  0.68014  0.61738  1.0000
  I   I243      1.0  0.78413  0.91172  0.00049  1.0000
  I   I244      1.0  0.46005  0.21527  0.67272  1.0000
  I   I245      1.0  0.18660  0.81315  0.69308  1.0000
  I   I246      1.0  0.40214  0.43802  0.28358  1.0000
  I   I247      1.0  0.71860  0.01598  0.01920  1.0000
  I   I248      1.0  0.27179  0.71754  0.11921  1.0000
  I   I249      1.0  0.14477  0.41682  0.62115  1.0000
  I   I250      1.0  0.43997  0.53983  0.60479  1.0000
  I   I251      1.0  0.34420  0.03233  0.71548  1.0000
  I   I252      1.0  0.95336  0.17815  0.45076  1.0000
  I   I253      1.0  0.76512  0.67569  0.48145  1.0000
  I   I254      1.0  0.17819  0.22428  0.18766  1.0000
  I   I255      1.0  0.76885  0.83117  0.77019  1.0000
  I   I256      1.0  0.98584  0.94499  0.20925  1.0000
  I   I257      1.0  0.93395  0.57142  0.63224  1.0000
  I   I258      1.0  0.30086  0.18143  0.36252  1.0000
  I   I259      1.0  0.14560  0.18272  0.36235  1.0000
  I   I260      1.0  0.47664  0.26857  0.15179  1.0000
  I   I261      1.0  0.31314  0.71533  0.06857  1.0000
  I   I262      1.0  0.80066  0.35915  0.67691  1.0000
  I   I263      1.0  0.92598  0.69878  0.07072  1.0000
  I   I264      1.0  0.33994  0.20259  0.50221  1.0000
  I   I265      1.0  0.74722  0.51665  0.42725  1.0000
  I   I266      1.0  0.88518  0.94204  0.84587  1.0000
  I   I267      1.0  0.47078  0.51237  0.04700  1.0000
  I   I268      1.0  0.44699  0.14198  0.75403  1.0000
  I   I269      1.0  0.28848  0.98170  0.20886  1.0000
  I   I270      1.0  0.46800  0.11513  0.86424  1.0000
  I   I271      1.0  0.54287  0.41305  0.26671  1.0000
  I   I272      1.0  0.89834  0.62779  0.81172  1.0000
  I   I273      1.0  0.60381  0.34954  0.59119  1.0000
  I   I274      1.0  0.80679  0.63035  0.06723  1.0000
  I   I275      1.0  0.67844  0.78504  0.15186  1.0000
  I   I276      1.0  0.41646  0.20505  0.58453  1.0000
  I   I277      1.0  0.71754  0.44207  0.41950  1.0000
  I   I278      1.0  0.17723  0.42897  0.26683  1.0000
  I   I279      1.0  0.45628  0.13430  0.24023  1.0000
  I   I280      1.0  0.57402  0.39313  0.86985  1.0000
  I   I281      1.0  0.88025  0.54651  0.36340  1.0000
  I   I282      1.0  0.86465  0.72573  0.25552  1.0000
  I   I283      1.0  0.04298  0.82770  0.63746  1.0000
  I   I284      1.0  0.74754  0.31951  0.25326  1.0000
  I   I285      1.0  0.45373  0.11225  0.06128  1.0000
  I   I286      1.0  0.97155  0.28705  0.43812  1.0000
  I   I287      1.0  0.08638  0.87192  0.82660  1.0000
  I   I288      1.0  0.96213  0.14764  0.76361  1.0000
  I   I289      1.0  0.00672  0.86126  0.52018  1.0000
  I   I290      1.0  0.08658  0.20197  0.31016  1.0000
  I   I291      1.0  0.44578  0.64511  0.59776  1.0000
  I   I292      1.0  0.56032  0.40745  0.75639  1.0000
  I   I293      1.0  0.20683  0.85136  0.71347  1.0000
  I   I294      1.0  0.37438  0.93213  0.23706  1.0000
  I   I295      1.0  0.72531  0.09653  0.01921  1.0000
  I   I296      1.0  0.60572  0.86206  0.98427  1.0000
  I   I297      1.0  0.22946  0.39661  0.61449  1.0000
  I   I298      1.0  0.35700  0.97166  0.41842  1.0000
  I   I299      1.0  0.21735  0.57137  0.45932  1.0000
  I   I300      1.0  0.58275  0.51386  0.48388  1.0000
  I   I301      1.0  0.73819  0.81765  0.71919  1.0000
  I   I302      1.0  0.71295  0.72286  0.46154  1.0000
  I   I303      1.0  0.58592  0.73944  0.41865  1.0000
  I   I304      1.0  0.32934  0.15475  0.25131  1.0000
  I   I305      1.0  0.25763  0.53301  0.36474  1.0000
  I   I306      1.0  0.66212  0.12605  0.98652  1.0000
  I   I307      1.0  0.91989  0.10242  0.80969  1.0000
  I   I308      1.0  0.16980  0.53816  0.94620  1.0000
  I   I309      1.0  0.32378  0.71845  0.17745  1.0000
  I   I310      1.0  0.98731  0.85121  0.62653  1.0000
  I   I311      1.0  0.90732  0.73501  0.16842  1.0000
  I   I312      1.0  0.12270  0.90983  0.86557  1.0000
  I   I313      1.0  0.44238  0.47911  0.00014  1.0000
  I   I314      1.0  0.76064  0.54103  0.32507  1.0000
  I   I315      1.0  0.40947  0.23208  0.03251  1.0000
  I   I316      1.0  0.40237  0.09191  0.68442  1.0000
  I   I317      1.0  0.46567  0.16914  0.84513  1.0000
  I   I318      1.0  0.26919  0.93737  0.19463  1.0000
  I   I319      1.0  0.32868  0.80910  0.66590  1.0000
  I   I320      1.0  0.15932  0.22476  0.06642  1.0000
  I   I321      1.0  0.50735  0.73414  0.04196  1.0000
  I   I322      1.0  0.80476  0.57610  0.03527  1.0000
  I   I323      1.0  0.07855  0.39568  0.65429  1.0000
  I   I324      1.0  0.30156  0.25598  0.52528  1.0000
  I   I325      1.0  0.91331  0.54653  0.77124  1.0000
  I   I326      1.0  0.66006  0.04158  0.00849  1.0000
  I   I327      1.0  0.49861  0.06787  0.24597  1.0000
  I   I328      1.0  0.64181  0.75569  0.29346  1.0000
  I   I329      1.0  0.29343  0.44182  0.08048  1.0000
  I   I330      1.0  0.00970  0.47603  0.06916  1.0000
  I   I331      1.0  0.51630  0.11489  0.06724  1.0000
  I   I332      1.0  0.35415  0.92779  0.47820  1.0000
  I   I333      1.0  0.89377  0.56860  0.48229  1.0000
  I   I334      1.0  0.02734  0.04207  0.72167  1.0000
  I   I335      1.0  0.71439  0.95151  0.00377  1.0000
  I   I336      1.0  0.80506  0.28807  0.82221  1.0000
  I   I337      1.0  0.99156  0.93210  0.55805  1.0000
  I   I338      1.0  0.11229  0.15189  0.41892  1.0000
  I   I339      1.0  0.50329  0.63030  0.59463  1.0000
  I   I340      1.0  0.40447  0.97599  0.92297  1.0000
  I   I341      1.0  0.20432  0.10069  0.89995  1.0000
  I   I342      1.0  0.42036  0.95320  0.23150  1.0000
  I   I343      1.0  0.48452  0.73889  0.13986  1.0000
  I   I344      1.0  0.62733  0.85944  0.08780  1.0000
  I   I345      1.0  0.22997  0.44534  0.63736  1.0000
  I   I346      1.0  0.22774  0.09735  0.29484  1.0000
  I   I347      1.0  0.47107  0.50685  0.68066  1.0000
  I   I348      1.0  0.96255  0.12700  0.52636  1.0000
  I   I349      1.0  0.75049  0.77377  0.79022  1.0000
  I   I350      1.0  0.68378  0.78638  0.43995  1.0000
  I   I351      1.0  0.11561  0.18582  0.11914  1.0000
  I   I352      1.0  0.36534  0.13441  0.32113  1.0000
  I   I353      1.0  0.98633  0.89264  0.17515  1.0000
  I   I354      1.0  0.70557  0.03411  0.11137  1.0000
  I   I355      1.0  0.86041  0.10302  0.79801  1.0000
  I   I356      1.0  0.47244  0.24661  0.24110  1.0000
  I   I357      1.0  0.95157  0.87451  0.85494  1.0000
  I   I358      1.0  0.70827  0.34197  0.34774  1.0000
  I   I359      1.0  0.93446  0.75240  0.06514  1.0000
  I   I360      1.0  0.17536  0.90892  0.79271  1.0000
  I   I361      1.0  0.41953  0.58758  0.08658  1.0000
  I   I362      1.0  0.77600  0.47951  0.37902  1.0000
  I   I363      1.0  0.89363  0.87958  0.82276  1.0000
  I   I364      1.0  0.27341  0.86310  0.07901  1.0000
  I   I365      1.0  0.83611  0.52443  0.70247  1.0000
  I   I366      1.0  0.29021  0.92083  0.30495  1.0000
  I   I367      1.0  0.30999  0.84707  0.59825  1.0000
  I   I368      1.0  0.39840  0.94808  0.02128  1.0000
  I   I369      1.0  0.86213  0.60507  0.84641  1.0000
  I   I370      1.0  0.85524  0.57449  0.04734  1.0000
  I   I371      1.0  0.02866  0.45202  0.60474  1.0000
  I   I372      1.0  0.75462  0.29570  0.38358  1.0000
  I   I373      1.0  0.88256  0.58323  0.66457  1.0000
  I   I374      1.0  0.21943  0.39606  0.19359  1.0000
  I   I375      1.0  0.46812  0.08888  0.14481  1.0000
  I   I376      1.0  0.51111  0.20144  0.74352  1.0000
  I   I377      1.0  0.24456  0.49570  0.06026  1.0000
  I   I378      1.0  0.85105  0.68607  0.27631  1.0000
  I   I379      1.0  0.08138  0.93826  0.30663  1.0000
  I   I380      1.0  0.69594  0.25066  0.45900  1.0000
  I   I381      1.0  0.98242  0.11533  0.44231  1.0000
  I   I382      1.0  0.96505  0.09156  0.70618  1.0000
  I   I383      1.0  0.97879  0.29102  0.53747  1.0000
  I   I384      1.0  0.13523  0.85681  0.88817  1.0000
