data_image0
_chemical_formula_structural       Ti96I384
_chemical_formula_sum              "Ti96 I384"
_cell_length_a       72.9627
_cell_length_b       72.9643
_cell_length_c       35.6348
_cell_angle_alpha    88.7757
_cell_angle_beta     88.7757
_cell_angle_gamma    62.1586

_space_group_name_H-M_alt    "P 1"
_space_group_IT_number       1

loop_
  _space_group_symop_operation_xyz
  'x, y, z'

loop_
  _atom_site_type_symbol
  _atom_site_label
  _atom_site_symmetry_multiplicity
  _atom_site_fract_x
  _atom_site_fract_y
  _atom_site_fract_z
  _atom_site_occupancy
  Ti  Ti1       1.0  0.59889  0.46957  0.70139  1.0000
  Ti  Ti2       1.0  0.27870  0.85909  0.21739  1.0000
  Ti  Ti3       1.0  0.37936  0.04772  0.91952  1.0000
  Ti  Ti4       1.0  0.06009  0.32466  0.06486  1.0000
  Ti  Ti5       1.0  0.58784  0.59585  0.34357  1.0000
  Ti  Ti6       1.0  0.44521  0.20020  0.30142  1.0000
  Ti  Ti7       1.0  0.55393  0.81694  0.12537  1.0000
  Ti  Ti8       1.0  0.21477  0.52583  0.90848  1.0000
  Ti  Ti9       1.0  0.38845  0.30267  0.03494  1.0000
  Ti  Ti10      1.0  0.66243  0.59047  0.90451  1.0000
  Ti  Ti11      1.0  0.23876  0.11995  0.90381  1.0000
  Ti  Ti12      1.0  0.86852  0.23977  0.98855  1.0000
  Ti  Ti13      1.0  0.72629  0.75407  0.51854  1.0000
  Ti  Ti14      1.0  0.07814  0.34926  0.98420  1.0000
  Ti  Ti15      1.0  0.76903  0.61247  0.54075  1.0000
  Ti  Ti16      1.0  0.28543  0.50363  0.09951  1.0000
  Ti  Ti17      1.0  0.04952  0.21001  0.07437  1.0000
  Ti  Ti18      1.0  0.24702  0.30770  0.94531  1.0000
  Ti  Ti19      1.0  0.06316  0.83720  0.31810  1.0000
  Ti  Ti20      1.0  0.28862  0.78843  0.47506  1.0000
  Ti  Ti21      1.0  0.17871  0.56875  0.88529  1.0000
  Ti  Ti22      1.0  0.07808  0.15045  0.32871  1.0000
  Ti  Ti23      1.0  0.15928  0.00901  0.35725  1.0000
  Ti  Ti24      1.0  0.81949  0.06515  0.14460  1.0000
  Ti  Ti25      1.0  0.54419  0.47261  0.31118  1.0000
  Ti  Ti26      1.0  0.54520  0.91111  0.67544  1.0000
  Ti  Ti27      1.0  0.76026  0.34698  0.25670  1.0000
  Ti  Ti28      1.0  0.30761  0.04267  0.25104  1.0000
  Ti  Ti29      1.0  0.28529  0.80194  0.04739  1.0000
  Ti  Ti30      1.0  0.28290  0.95725  0.46212  1.0000
  Ti  Ti31      1.0  0.47391  0.89315  0.60670  1.0000
  Ti  Ti32      1.0  0.39726  0.85798  0.91185  1.0000
  Ti  Ti33      1.0  0.32452  0.58317  0.15466  1.0000
  Ti  Ti34      1.0  0.75724  0.51903  0.18344  1.0000
  Ti  Ti35      1.0  0.09117  0.54962  0.47845  1.0000
  Ti  Ti36      1.0  0.79063  0.15252  0.16802  1.0000
  Ti  Ti37      1.0  0.08136  0.05744  0.72165  1.0000
  Ti  Ti38      1.0  0.61279  0.92774  0.16566  1.0000
  Ti  Ti39      1.0  0.64591  0.86313  0.88769  1.0000
  Ti  Ti40      1.0  0.59906  0.75588  0.64500  1.0000
  Ti  Ti41      1.0  0.61412  0.45978  0.96003  1.0000
  Ti  Ti42      1.0  0.95399  0.56176  0.91778  1.0000
  Ti  Ti43      1.0  0.89031  0.02230  0.99157  1.0000
  Ti  Ti44      1.0  0.68337  0.41554  0.96868  1.0000
  Ti  Ti45      1.0  0.14931  0.17174  0.55482  1.0000
  Ti  Ti46      1.0  0.32145  0.04786  0.93049  1.0000
  Ti  Ti47      1.0  0.20158  0.91453  0.96652  1.0000
  Ti  Ti48      1.0  0.05811  0.02805  0.11538  1.0000
  Ti  Ti49      1.0  0.79517  0.87440  0.50600  1.0000
  Ti  Ti50      1.0  0.92490  0.41484  0.21697  1.0000
  Ti  Ti51      1.0  0.26806  0.90352  0.18963  1.0000
  Ti  Ti52      1.0  0.79020  0.49029  0.69710  1.0000
  Ti  Ti53      1.0  0.80895  0.76235  0.06947  1.0000
  Ti  Ti54      1.0  0.64060  0.18642  0.32203  1.0000
  Ti  Ti55      1.0  0.62407  0.78511  0.16184  1.0000
  Ti  Ti56      1.0  0.12441  0.81198  0.75142  1.0000
  Ti  Ti57      1.0  0.43284  0.27298  0.02793  1.0000
  Ti  Ti58      1.0  0.36252  0.54572  0.55929  1.0000
  Ti  Ti59      1.0  0.58628  0.00417  0.57215  1.0000
  Ti  Ti60      1.0  0.92017  0.21100  0.04528  1.0000
  Ti  Ti61      1.0  0.72310  0.62903  0.48586  1.0000
  Ti  Ti62      1.0  0.70496  0.75751  0.41120  1.0000
  Ti  Ti63      1.0  0.12324  0.66726  0.07117  1.0000
  Ti  Ti64      1.0  0.21310  0.31675  0.00146  1.0000
  Ti  Ti65      1.0  0.97957  0.74280  0.36280  1.0000
  Ti  Ti66      1.0  0.61840  0.28676  0.15261  1.0000
  Ti  Ti67      1.0  0.85883  0.55182  0.40214  1.0000
  Ti  Ti68      1.0  0.02765  0.82448  0.35570  1.0000
  Ti  Ti69      1.0  0.56873  0.86996  0.57548  1.0000
  Ti  Ti70      1.0  0.89317  0.54654  0.46839  1.0000
  Ti  Ti71      1.0  0.16588  0.04779  0.38212  1.0000
  Ti  Ti72      1.0  0.17684  0.97455  0.90014  1.0000
  Ti  Ti73      1.0  0.73443  0.39741  0.22488  1.0000
  Ti  Ti74      1.0  0.55928  0.41630  0.29293  1.0000
  Ti  Ti75      1.0  0.44506  0.09706  0.02391  1.0000
  Ti  Ti76      1.0  0.26018  0.10089  0.22357  1.0000
  Ti  Ti77      1.0  0.03125  0.79765  0.66560  1.0000
  Ti  Ti78      1.0  0.24310  0.77513  0.04637  1.0000
  Ti  Ti79      1.0  0.77354  0.96147  0.07956  1.0000
  Ti  Ti80      1.0  0.05688  0.40273  0.28349  1.0000
  Ti  Ti81      1.0  0.33743  0.85550  0.88370  1.0000
  Ti  Ti82      1.0  0.89538  0.25798  0.29499  1.0000
  Ti  Ti83      1.0  0.11145  0.50026  0.40454  1.0000
  Ti  Ti84      1.0  0.79892  0.18563  0.10692  1.0000
  Ti  Ti85      1.0  0.06742  0.08834  0.77466  1.0000
  Ti  Ti86      1.0  0.66620  0.26737  0.18564  1.0000
  Ti  Ti87      1.0  0.13730  0.22482  0.54733  1.0000
  Ti  Ti88      1.0  0.84223  0.47590  0.78370  1.0000
  Ti  Ti89      1.0  0.40661  0.40251  0.27260  1.0000
  Ti  Ti90      1.0  0.95940  0.58892  0.86652  1.0000
  Ti  Ti91      1.0  0.20081  0.58607  0.31423  1.0000
  Ti  Ti92      1.0  0.48845  0.74244  0.34553  1.0000
  Ti  Ti93      1.0  0.93533  0.14771  0.14316  1.0000
  Ti  Ti94      1.0  0.07810  0.96910  0.13751  1.0000
  Ti  Ti95      1.0  0.23844  0.41262  0.97240  1.0000
  Ti  Ti96      1.0  0.94723  0.31046  0.55886  1.0000
  I   I1        1.0  0.19140  0.99962  0.92803  1.0000
  I   I2        1.0  0.29847  0.87465  0.14844  1.0000
  I   I3        1.0  0.83188  0.84330  0.48161  1.0000
  I   I4        1.0  0.83103  0.72336  0.09601  1.0000
  I   I5        1.0  0.46883  0.20930  0.25798  1.0000
  I   I6        1.0  0.64395  0.21395  0.35701  1.0000
  I   I7        1.0  0.24704  0.49831  0.95023  1.0000
  I   I8        1.0  0.09780  0.80649  0.79329  1.0000
  I   I9        1.0  0.42059  0.31249  0.01932  1.0000
  I   I10       1.0  0.69855  0.57569  0.87257  1.0000
  I   I11       1.0  0.19936  0.14422  0.89413  1.0000
  I   I12       1.0  0.56939  0.60538  0.41107  1.0000
  I   I13       1.0  0.73407  0.77287  0.45696  1.0000
  I   I14       1.0  0.12095  0.70183  0.03812  1.0000
  I   I15       1.0  0.80717  0.59108  0.52736  1.0000
  I   I16       1.0  0.65400  0.62942  0.90369  1.0000
  I   I17       1.0  0.60523  0.32325  0.17720  1.0000
  I   I18       1.0  0.25794  0.27826  0.89811  1.0000
  I   I19       1.0  0.28247  0.81973  0.51389  1.0000
  I   I20       1.0  0.25172  0.14310  0.94384  1.0000
  I   I21       1.0  0.23957  0.54170  0.88770  1.0000
  I   I22       1.0  0.16887  0.97082  0.33637  1.0000
  I   I23       1.0  0.16927  0.02033  0.43659  1.0000
  I   I24       1.0  0.86078  0.54264  0.47989  1.0000
  I   I25       1.0  0.53671  0.50567  0.27678  1.0000
  I   I26       1.0  0.43772  0.13505  0.00359  1.0000
  I   I27       1.0  0.80096  0.32865  0.25629  1.0000
  I   I28       1.0  0.31476  0.00997  0.22004  1.0000
  I   I29       1.0  0.29198  0.76106  0.03744  1.0000
  I   I30       1.0  0.26959  0.96389  0.53254  1.0000
  I   I31       1.0  0.02891  0.39143  0.30152  1.0000
  I   I32       1.0  0.34703  0.82796  0.83542  1.0000
  I   I33       1.0  0.73016  0.97372  0.08559  1.0000
  I   I34       1.0  0.07935  0.52276  0.46181  1.0000
  I   I35       1.0  0.82942  0.14596  0.13769  1.0000
  I   I36       1.0  0.73178  0.52679  0.12997  1.0000
  I   I37       1.0  0.05292  0.05198  0.77151  1.0000
  I   I38       1.0  0.68216  0.83914  0.91017  1.0000
  I   I39       1.0  0.08417  0.09244  0.69855  1.0000
  I   I40       1.0  0.65044  0.45664  0.99105  1.0000
  I   I41       1.0  0.98238  0.54742  0.83870  1.0000
  I   I42       1.0  0.60660  0.71985  0.61490  1.0000
  I   I43       1.0  0.34123  0.54117  0.61572  1.0000
  I   I44       1.0  0.69397  0.37830  0.96107  1.0000
  I   I45       1.0  0.12260  0.20981  0.48816  1.0000
  I   I46       1.0  0.24580  0.44366  0.94925  1.0000
  I   I47       1.0  0.18599  0.93412  0.88769  1.0000
  I   I48       1.0  0.09115  0.94334  0.07925  1.0000
  I   I49       1.0  0.77609  0.86085  0.55901  1.0000
  I   I50       1.0  0.24521  0.90307  0.25216  1.0000
  I   I51       1.0  0.31067  0.86438  0.25271  1.0000
  I   I52       1.0  0.05483  0.43647  0.25718  1.0000
  I   I53       1.0  0.81965  0.78312  0.02484  1.0000
  I   I54       1.0  0.60415  0.20644  0.28104  1.0000
  I   I55       1.0  0.59532  0.76936  0.12388  1.0000
  I   I56       1.0  0.16715  0.55871  0.82501  1.0000
  I   I57       1.0  0.21087  0.42051  0.91745  1.0000
  I   I58       1.0  0.64093  0.58075  0.85638  1.0000
  I   I59       1.0  0.56291  0.01171  0.51591  1.0000
  I   I60       1.0  0.85476  0.25537  0.92512  1.0000
  I   I61       1.0  0.71927  0.76945  0.35426  1.0000
  I   I62       1.0  0.72171  0.71548  0.41945  1.0000
  I   I63       1.0  0.09988  0.65808  0.12333  1.0000
  I   I64       1.0  0.26817  0.48706  0.14898  1.0000
  I   I65       1.0  0.95982  0.78186  0.36660  1.0000
  I   I66       1.0  0.58806  0.28200  0.18751  1.0000
  I   I67       1.0  0.09536  0.83247  0.36863  1.0000
  I   I68       1.0  0.32235  0.79074  0.44392  1.0000
  I   I69       1.0  0.55676  0.84233  0.54958  1.0000
  I   I70       1.0  0.88471  0.57345  0.52433  1.0000
  I   I71       1.0  0.14670  0.05454  0.31316  1.0000
  I   I72       1.0  0.13767  0.99578  0.89857  1.0000
  I   I73       1.0  0.71306  0.37559  0.23962  1.0000
  I   I74       1.0  0.51284  0.93519  0.71898  1.0000
  I   I75       1.0  0.52719  0.94026  0.62763  1.0000
  I   I76       1.0  0.00996  0.80410  0.73323  1.0000
  I   I77       1.0  0.03464  0.82587  0.61467  1.0000
  I   I78       1.0  0.56808  0.47401  0.75134  1.0000
  I   I79       1.0  0.31540  0.59054  0.22223  1.0000
  I   I80       1.0  0.47405  0.90397  0.67563  1.0000
  I   I81       1.0  0.37277  0.86325  0.84825  1.0000
  I   I82       1.0  0.90815  0.26168  0.37542  1.0000
  I   I83       1.0  0.09331  0.56661  0.53963  1.0000
  I   I84       1.0  0.77689  0.16376  0.08713  1.0000
  I   I85       1.0  0.05929  0.06051  0.66335  1.0000
  I   I86       1.0  0.60986  0.29908  0.07899  1.0000
  I   I87       1.0  0.63328  0.89807  0.91414  1.0000
  I   I88       1.0  0.63158  0.75157  0.68052  1.0000
  I   I89       1.0  0.60083  0.49887  0.93283  1.0000
  I   I90       1.0  0.93088  0.62853  0.89172  1.0000
  I   I91       1.0  0.17361  0.59907  0.26286  1.0000
  I   I92       1.0  0.50087  0.74960  0.40810  1.0000
  I   I93       1.0  0.70283  0.41485  0.02860  1.0000
  I   I94       1.0  0.09269  0.93528  0.18701  1.0000
  I   I95       1.0  0.30495  0.05594  0.99394  1.0000
  I   I96       1.0  0.97468  0.29551  0.61703  1.0000
  I   I97       1.0  0.40578  0.03793  0.97305  1.0000
  I   I98       1.0  0.62060  0.43151  0.68500  1.0000
  I   I99       1.0  0.24720  0.92143  0.12774  1.0000
  I   I100      1.0  0.05911  0.33480  0.94123  1.0000
  I   I101      1.0  0.87239  0.44205  0.75600  1.0000
  I   I102      1.0  0.60717  0.55492  0.34580  1.0000
  I   I103      1.0  0.53360  0.79428  0.13312  1.0000
  I   I104      1.0  0.59261  0.81296  0.11112  1.0000
  I   I105      1.0  0.37535  0.27485  0.04870  1.0000
  I   I106      1.0  0.88020  0.26599  0.00910  1.0000
  I   I107      1.0  0.65748  0.58724  0.98312  1.0000
  I   I108      1.0  0.87628  0.23126  0.06581  1.0000
  I   I109      1.0  0.75813  0.59533  0.46759  1.0000
  I   I110      1.0  0.67896  0.75547  0.36521  1.0000
  I   I111      1.0  0.15363  0.65912  0.11623  1.0000
  I   I112      1.0  0.24977  0.27488  0.99389  1.0000
  I   I113      1.0  0.02104  0.72362  0.38112  1.0000
  I   I114      1.0  0.06443  0.17006  0.05481  1.0000
  I   I115      1.0  0.84083  0.55199  0.33810  1.0000
  I   I116      1.0  0.93253  0.53392  0.44449  1.0000
  I   I117      1.0  0.05549  0.81599  0.41833  1.0000
  I   I118      1.0  0.11054  0.13695  0.28567  1.0000
  I   I119      1.0  0.87850  0.57338  0.39917  1.0000
  I   I120      1.0  0.17008  0.95835  0.96868  1.0000
  I   I121      1.0  0.70460  0.42675  0.18733  1.0000
  I   I122      1.0  0.51406  0.48779  0.36675  1.0000
  I   I123      1.0  0.47393  0.07328  0.98024  1.0000
  I   I124      1.0  0.26676  0.99561  0.44159  1.0000
  I   I125      1.0  0.34487  0.03722  0.26219  1.0000
  I   I126      1.0  0.30052  0.80297  0.98412  1.0000
  I   I127      1.0  0.32513  0.61581  0.12321  1.0000
  I   I128      1.0  0.03049  0.31406  0.06071  1.0000
  I   I129      1.0  0.30725  0.89166  0.87541  1.0000
  I   I130      1.0  0.82138  0.07508  0.07300  1.0000
  I   I131      1.0  0.86692  0.25863  0.33533  1.0000
  I   I132      1.0  0.05208  0.57671  0.48825  1.0000
  I   I133      1.0  0.62489  0.84261  0.89804  1.0000
  I   I134      1.0  0.60363  0.89806  0.20378  1.0000
  I   I135      1.0  0.64162  0.27290  0.24496  1.0000
  I   I136      1.0  0.95349  0.61057  0.80525  1.0000
  I   I137      1.0  0.76204  0.52958  0.70519  1.0000
  I   I138      1.0  0.39530  0.38251  0.31673  1.0000
  I   I139      1.0  0.18655  0.61272  0.36853  1.0000
  I   I140      1.0  0.44939  0.76082  0.35189  1.0000
  I   I141      1.0  0.93073  0.14109  0.07288  1.0000
  I   I142      1.0  0.04943  0.00047  0.07151  1.0000
  I   I143      1.0  0.33390  0.08195  0.93582  1.0000
  I   I144      1.0  0.96089  0.27285  0.53785  1.0000
  I   I145      1.0  0.62195  0.48235  0.73545  1.0000
  I   I146      1.0  0.29643  0.81777  0.20835  1.0000
  I   I147      1.0  0.41050  0.02320  0.87141  1.0000
  I   I148      1.0  0.83414  0.47726  0.69516  1.0000
  I   I149      1.0  0.60358  0.62250  0.34580  1.0000
  I   I150      1.0  0.45439  0.20948  0.36837  1.0000
  I   I151      1.0  0.65661  0.78914  0.15310  1.0000
  I   I152      1.0  0.17870  0.60478  0.88650  1.0000
  I   I153      1.0  0.47299  0.25976  0.02169  1.0000
  I   I154      1.0  0.88424  0.04993  0.93206  1.0000
  I   I155      1.0  0.26595  0.12135  0.85566  1.0000
  I   I156      1.0  0.90298  0.20883  0.96937  1.0000
  I   I157      1.0  0.77048  0.63786  0.59794  1.0000
  I   I158      1.0  0.12500  0.64597  0.01232  1.0000
  I   I159      1.0  0.70526  0.65824  0.43278  1.0000
  I   I160      1.0  0.19141  0.34643  0.05504  1.0000
  I   I161      1.0  0.02799  0.21588  0.13892  1.0000
  I   I162      1.0  0.28936  0.28965  0.94007  1.0000
  I   I163      1.0  0.02542  0.83883  0.28454  1.0000
  I   I164      1.0  0.01185  0.79946  0.33629  1.0000
  I   I165      1.0  0.22537  0.50319  0.85278  1.0000
  I   I166      1.0  0.08191  0.11350  0.34805  1.0000
  I   I167      1.0  0.19551  0.01151  0.34924  1.0000
  I   I168      1.0  0.77812  0.07638  0.14328  1.0000
  I   I169      1.0  0.59183  0.38363  0.26503  1.0000
  I   I170      1.0  0.56513  0.42104  0.36538  1.0000
  I   I171      1.0  0.75812  0.35172  0.32566  1.0000
  I   I172      1.0  0.29108  0.04810  0.31751  1.0000
  I   I173      1.0  0.24548  0.79531  0.97749  1.0000
  I   I174      1.0  0.32322  0.93431  0.47132  1.0000
  I   I175      1.0  0.45561  0.86963  0.59439  1.0000
  I   I176      1.0  0.40524  0.88959  0.89319  1.0000
  I   I177      1.0  0.80800  0.95919  0.04717  1.0000
  I   I178      1.0  0.93408  0.24599  0.29935  1.0000
  I   I179      1.0  0.08702  0.48209  0.39799  1.0000
  I   I180      1.0  0.82580  0.20009  0.10986  1.0000
  I   I181      1.0  0.11137  0.05531  0.76563  1.0000
  I   I182      1.0  0.65160  0.24825  0.12772  1.0000
  I   I183      1.0  0.17401  0.14388  0.50429  1.0000
  I   I184      1.0  0.80514  0.47756  0.76692  1.0000
  I   I185      1.0  0.41476  0.38423  0.21151  1.0000
  I   I186      1.0  0.92764  0.57469  0.97118  1.0000
  I   I187      1.0  0.50241  0.75149  0.27545  1.0000
  I   I188      1.0  0.70632  0.41888  0.91675  1.0000
  I   I189      1.0  0.11487  0.17005  0.55471  1.0000
  I   I190      1.0  0.29595  0.07142  0.87055  1.0000
  I   I191      1.0  0.96418  0.39743  0.24697  1.0000
  I   I192      1.0  0.09664  0.99136  0.13564  1.0000
  I   I193      1.0  0.31697  0.78826  0.09719  1.0000
  I   I194      1.0  0.92113  0.44653  0.17422  1.0000
  I   I195      1.0  0.38601  0.07915  0.92311  1.0000
  I   I196      1.0  0.05422  0.34656  0.12945  1.0000
  I   I197      1.0  0.35735  0.52648  0.50284  1.0000
  I   I198      1.0  0.40536  0.21941  0.27825  1.0000
  I   I199      1.0  0.64438  0.74525  0.17578  1.0000
  I   I200      1.0  0.16017  0.79968  0.78445  1.0000
  I   I201      1.0  0.35556  0.33343  0.05247  1.0000
  I   I202      1.0  0.54997  0.01981  0.61521  1.0000
  I   I203      1.0  0.58405  0.88452  0.62919  1.0000
  I   I204      1.0  0.95897  0.19514  0.03187  1.0000
  I   I205      1.0  0.71100  0.79205  0.55642  1.0000
  I   I206      1.0  0.07784  0.38651  0.96255  1.0000
  I   I207      1.0  0.75816  0.59179  0.59264  1.0000
  I   I208      1.0  0.31931  0.49979  0.12065  1.0000
  I   I209      1.0  0.01988  0.24141  0.03849  1.0000
  I   I210      1.0  0.79102  0.93942  0.14272  1.0000
  I   I211      1.0  0.82355  0.58856  0.38962  1.0000
  I   I212      1.0  0.25746  0.79426  0.43546  1.0000
  I   I213      1.0  0.54989  0.90517  0.53299  1.0000
  I   I214      1.0  0.07736  0.17662  0.37290  1.0000
  I   I215      1.0  0.16590  0.00902  0.27384  1.0000
  I   I216      1.0  0.82042  0.02972  0.13689  1.0000
  I   I217      1.0  0.57372  0.47403  0.36001  1.0000
  I   I218      1.0  0.41230  0.09028  0.01708  1.0000
  I   I219      1.0  0.74375  0.32099  0.24869  1.0000
  I   I220      1.0  0.02235  0.76863  0.63738  1.0000
  I   I221      1.0  0.24831  0.80137  0.08398  1.0000
  I   I222      1.0  0.30641  0.07813  0.20312  1.0000
  I   I223      1.0  0.44022  0.92882  0.60236  1.0000
  I   I224      1.0  0.42518  0.83427  0.86728  1.0000
  I   I225      1.0  0.36085  0.54644  0.14483  1.0000
  I   I226      1.0  0.88702  0.28772  0.25125  1.0000
  I   I227      1.0  0.09265  0.57357  0.42315  1.0000
  I   I228      1.0  0.77417  0.22062  0.14762  1.0000
  I   I229      1.0  0.07292  0.22633  0.08567  1.0000
  I   I230      1.0  0.64124  0.93501  0.17119  1.0000
  I   I231      1.0  0.65389  0.85553  0.81245  1.0000
  I   I232      1.0  0.03667  0.36044  0.01645  1.0000
  I   I233      1.0  0.58295  0.45437  0.97010  1.0000
  I   I234      1.0  0.92782  0.57323  0.85438  1.0000
  I   I235      1.0  0.85924  0.01660  0.01657  1.0000
  I   I236      1.0  0.96575  0.11269  0.14266  1.0000
  I   I237      1.0  0.22864  0.59014  0.27973  1.0000
  I   I238      1.0  0.26794  0.40541  0.03000  1.0000
  I   I239      1.0  0.90669  0.32660  0.56477  1.0000
  I   I240      1.0  0.07861  0.04823  0.09964  1.0000
  I   I241      1.0  0.57081  0.49417  0.65789  1.0000
  I   I242      1.0  0.26002  0.85222  0.28293  1.0000
  I   I243      1.0  0.36698  0.02109  0.92428  1.0000
  I   I244      1.0  0.81511  0.51875  0.78031  1.0000
  I   I245      1.0  0.78825  0.75290  0.01694  1.0000
  I   I246      1.0  0.46057  0.16049  0.27841  1.0000
  I   I247      1.0  0.55412  0.82393  0.05363  1.0000
  I   I248      1.0  0.17291  0.53244  0.91204  1.0000
  I   I249      1.0  0.41112  0.28906  0.10312  1.0000
  I   I250      1.0  0.62012  0.96912  0.57732  1.0000
  I   I251      1.0  0.25420  0.08885  0.94724  1.0000
  I   I252      1.0  0.83789  0.23120  0.01508  1.0000
  I   I253      1.0  0.74938  0.71273  0.54243  1.0000
  I   I254      1.0  0.11505  0.31981  0.96759  1.0000
  I   I255      1.0  0.76746  0.64321  0.49779  1.0000
  I   I256      1.0  0.96186  0.74443  0.30087  1.0000
  I   I257      1.0  0.02882  0.10597  0.77696  1.0000
  I   I258      1.0  0.24225  0.33295  0.01064  1.0000
  I   I259      1.0  0.89737  0.51464  0.37771  1.0000
  I   I260      1.0  0.04686  0.87583  0.34160  1.0000
  I   I261      1.0  0.19531  0.56009  0.97364  1.0000
  I   I262      1.0  0.04715  0.16477  0.28610  1.0000
  I   I263      1.0  0.14246  0.08235  0.42265  1.0000
  I   I264      1.0  0.80472  0.11376  0.16084  1.0000
  I   I265      1.0  0.51932  0.45494  0.28513  1.0000
  I   I266      1.0  0.54558  0.87525  0.64612  1.0000
  I   I267      1.0  0.72552  0.40885  0.29605  1.0000
  I   I268      1.0  0.25846  0.06689  0.22211  1.0000
  I   I269      1.0  0.24760  0.74310  0.08154  1.0000
  I   I270      1.0  0.24440  0.11766  0.15845  1.0000
  I   I271      1.0  0.49767  0.89207  0.55025  1.0000
  I   I272      1.0  0.36725  0.84343  0.94602  1.0000
  I   I273      1.0  0.30272  0.57612  0.09695  1.0000
  I   I274      1.0  0.79252  0.49148  0.15872  1.0000
  I   I275      1.0  0.12934  0.51226  0.46114  1.0000
  I   I276      1.0  0.79331  0.19573  0.03138  1.0000
  I   I277      1.0  0.90518  0.22897  0.24163  1.0000
  I   I278      1.0  0.57477  0.95637  0.16885  1.0000
  I   I279      1.0  0.16390  0.14520  0.61196  1.0000
  I   I280      1.0  0.76832  0.47103  0.68395  1.0000
  I   I281      1.0  0.64035  0.41913  0.99030  1.0000
  I   I282      1.0  0.96696  0.52322  0.92023  1.0000
  I   I283      1.0  0.91230  0.99011  0.95175  1.0000
  I   I284      1.0  0.95053  0.16189  0.21054  1.0000
  I   I285      1.0  0.10299  0.24919  0.57910  1.0000
  I   I286      1.0  0.27143  0.37244  0.97658  1.0000
  I   I287      1.0  0.19339  0.97594  0.83053  1.0000
  I   I288      1.0  0.02561  0.06019  0.07893  1.0000
  I   I289      1.0  0.76993  0.89560  0.45646  1.0000
  I   I290      1.0  0.91834  0.38629  0.19135  1.0000
  I   I291      1.0  0.25264  0.86926  0.15828  1.0000
  I   I292      1.0  0.78725  0.50358  0.62641  1.0000
  I   I293      1.0  0.79568  0.78635  0.12323  1.0000
  I   I294      1.0  0.63192  0.16565  0.37276  1.0000
  I   I295      1.0  0.61325  0.80662  0.22728  1.0000
  I   I296      1.0  0.13357  0.79319  0.68389  1.0000
  I   I297      1.0  0.40940  0.27914  0.96793  1.0000
  I   I298      1.0  0.40254  0.52334  0.58793  1.0000
  I   I299      1.0  0.28242  0.49610  0.02932  1.0000
  I   I300      1.0  0.90343  0.14475  0.16489  1.0000
  I   I301      1.0  0.69384  0.61522  0.50509  1.0000
  I   I302      1.0  0.73475  0.74780  0.60215  1.0000
  I   I303      1.0  0.61051  0.76934  0.58240  1.0000
  I   I304      1.0  0.20981  0.33777  0.91750  1.0000
  I   I305      1.0  0.25523  0.54117  0.09976  1.0000
  I   I306      1.0  0.66713  0.28969  0.11769  1.0000
  I   I307      1.0  0.07528  0.84276  0.24891  1.0000
  I   I308      1.0  0.29143  0.75745  0.51769  1.0000
  I   I309      1.0  0.14062  0.58861  0.90922  1.0000
  I   I310      1.0  0.89744  0.04714  0.03271  1.0000
  I   I311      1.0  0.11948  0.02641  0.36739  1.0000
  I   I312      1.0  0.20532  0.92306  0.03172  1.0000
  I   I313      1.0  0.77373  0.38633  0.23861  1.0000
  I   I314      1.0  0.57339  0.44401  0.25949  1.0000
  I   I315      1.0  0.46109  0.08247  0.08897  1.0000
  I   I316      1.0  0.27950  0.10753  0.27704  1.0000
  I   I317      1.0  0.22471  0.12322  0.25054  1.0000
  I   I318      1.0  0.20390  0.79565  0.04313  1.0000
  I   I319      1.0  0.78009  0.92871  0.04425  1.0000
  I   I320      1.0  0.08498  0.28975  0.08283  1.0000
  I   I321      1.0  0.41960  0.85280  0.97103  1.0000
  I   I322      1.0  0.74637  0.49442  0.21889  1.0000
  I   I323      1.0  0.15128  0.48058  0.37730  1.0000
  I   I324      1.0  0.80043  0.17331  0.22009  1.0000
  I   I325      1.0  0.07533  0.09527  0.84373  1.0000
  I   I326      1.0  0.69935  0.26445  0.22907  1.0000
  I   I327      1.0  0.17456  0.19407  0.51788  1.0000
  I   I328      1.0  0.56051  0.77847  0.64540  1.0000
  I   I329      1.0  0.43505  0.41152  0.29513  1.0000
  I   I330      1.0  0.99206  0.59494  0.86222  1.0000
  I   I331      1.0  0.15869  0.24318  0.53523  1.0000
  I   I332      1.0  0.33877  0.58218  0.52589  1.0000
  I   I333      1.0  0.61788  0.44094  0.89245  1.0000
  I   I334      1.0  0.04141  0.04685  0.17298  1.0000
  I   I335      1.0  0.30610  0.02247  0.91092  1.0000
  I   I336      1.0  0.94782  0.34465  0.54710  1.0000
  I   I337      1.0  0.80540  0.89486  0.55130  1.0000
  I   I338      1.0  0.89363  0.42920  0.26522  1.0000
  I   I339      1.0  0.27868  0.92985  0.21749  1.0000
  I   I340      1.0  0.08344  0.38989  0.33552  1.0000
  I   I341      1.0  0.56401  0.59920  0.28649  1.0000
  I   I342      1.0  0.68180  0.16002  0.31670  1.0000
  I   I343      1.0  0.52771  0.85494  0.14015  1.0000
  I   I344      1.0  0.11968  0.85245  0.75638  1.0000
  I   I345      1.0  0.43677  0.23683  0.04379  1.0000
  I   I346      1.0  0.91493  0.51565  0.52186  1.0000
  I   I347      1.0  0.59213  0.03584  0.58677  1.0000
  I   I348      1.0  0.91665  0.24136  0.08278  1.0000
  I   I349      1.0  0.71680  0.65497  0.53635  1.0000
  I   I350      1.0  0.69051  0.76139  0.48868  1.0000
  I   I351      1.0  0.09099  0.34032  0.05191  1.0000
  I   I352      1.0  0.19254  0.29769  0.98956  1.0000
  I   I353      1.0  0.97003  0.72527  0.41532  1.0000
  I   I354      1.0  0.69227  0.22801  0.19217  1.0000
  I   I355      1.0  0.06774  0.79338  0.31584  1.0000
  I   I356      1.0  0.99811  0.86265  0.37989  1.0000
  I   I357      1.0  0.57105  0.91384  0.72301  1.0000
  I   I358      1.0  0.85284  0.06103  0.17505  1.0000
  I   I359      1.0  0.19890  0.05595  0.39057  1.0000
  I   I360      1.0  0.23239  0.87370  0.96726  1.0000
  I   I361      1.0  0.75154  0.36548  0.17355  1.0000
  I   I362      1.0  0.52981  0.40711  0.28273  1.0000
  I   I363      1.0  0.60715  0.84582  0.56817  1.0000
  I   I364      1.0  0.28201  0.92665  0.42568  1.0000
  I   I365      1.0  0.06814  0.76702  0.68565  1.0000
  I   I366      1.0  0.27190  0.84323  0.05303  1.0000
  I   I367      1.0  0.75388  0.00168  0.04660  1.0000
  I   I368      1.0  0.08295  0.37183  0.24263  1.0000
  I   I369      1.0  0.32038  0.83884  0.92868  1.0000
  I   I370      1.0  0.76537  0.54102  0.23107  1.0000
  I   I371      1.0  0.09875  0.53217  0.35601  1.0000
  I   I372      1.0  0.75342  0.15816  0.18646  1.0000
  I   I373      1.0  0.11464  0.02287  0.69845  1.0000
  I   I374      1.0  0.60352  0.92959  0.09495  1.0000
  I   I375      1.0  0.15403  0.19828  0.60704  1.0000
  I   I376      1.0  0.85059  0.46381  0.85344  1.0000
  I   I377      1.0  0.37702  0.44082  0.27951  1.0000
  I   I378      1.0  0.98208  0.57036  0.93770  1.0000
  I   I379      1.0  0.21552  0.54869  0.33928  1.0000
  I   I380      1.0  0.49601  0.70437  0.32838  1.0000
  I   I381      1.0  0.93871  0.18116  0.11513  1.0000
  I   I382      1.0  0.04236  0.98597  0.17032  1.0000
  I   I383      1.0  0.21348  0.43183  0.02959  1.0000
  I   I384      1.0  0.16811  0.90804  0.96945  1.0000
