data_image0
_chemical_formula_structural       Ti96I384
_chemical_formula_sum              "Ti96 I384"
_cell_length_a       61.5569
_cell_length_b       61.4256
_cell_length_c       29.8806
_cell_angle_alpha    88.7757
_cell_angle_beta     88.7757
_cell_angle_gamma    62.1586

_space_group_name_H-M_alt    "P 1"
_space_group_IT_number       1

loop_
  _space_group_symop_operation_xyz
  'x, y, z'

loop_
  _atom_site_type_symbol
  _atom_site_label
  _atom_site_symmetry_multiplicity
  _atom_site_fract_x
  _atom_site_fract_y
  _atom_site_fract_z
  _atom_site_occupancy
  Ti  Ti1       1.0  0.61851  0.08081  0.53988  1.0000
  Ti  Ti2       1.0  0.49974  0.10161  0.38814  1.0000
  Ti  Ti3       1.0  0.99206  0.63650  0.96244  1.0000
  Ti  Ti4       1.0  0.44960  0.49066  0.56666  1.0000
  Ti  Ti5       1.0  0.23912  0.75791  0.17260  1.0000
  Ti  Ti6       1.0  0.51339  0.04510  0.04703  1.0000
  Ti  Ti7       1.0  0.05554  0.94127  0.34491  1.0000
  Ti  Ti8       1.0  0.12743  0.55734  0.18805  1.0000
  Ti  Ti9       1.0  0.06048  0.95378  0.61494  1.0000
  Ti  Ti10      1.0  0.96219  0.89698  0.82839  1.0000
  Ti  Ti11      1.0  0.41347  0.32357  0.83029  1.0000
  Ti  Ti12      1.0  0.16231  0.73901  0.57275  1.0000
  Ti  Ti13      1.0  0.35355  0.39844  0.54426  1.0000
  Ti  Ti14      1.0  0.18094  0.07099  0.58116  1.0000
  Ti  Ti15      1.0  0.55108  0.73363  0.89187  1.0000
  Ti  Ti16      1.0  0.95675  0.43956  0.67137  1.0000
  Ti  Ti17      1.0  0.21606  0.21685  0.33188  1.0000
  Ti  Ti18      1.0  0.71085  0.57008  0.70933  1.0000
  Ti  Ti19      1.0  0.77129  0.00774  0.27542  1.0000
  Ti  Ti20      1.0  0.37358  0.14034  0.76061  1.0000
  Ti  Ti21      1.0  0.63974  0.32359  0.20523  1.0000
  Ti  Ti22      1.0  0.54266  0.89134  0.37187  1.0000
  Ti  Ti23      1.0  0.61161  0.88722  0.04245  1.0000
  Ti  Ti24      1.0  0.36708  0.88577  0.51650  1.0000
  Ti  Ti25      1.0  0.16559  0.32926  0.94243  1.0000
  Ti  Ti26      1.0  0.92896  0.33821  0.33604  1.0000
  Ti  Ti27      1.0  0.35564  0.52293  0.85698  1.0000
  Ti  Ti28      1.0  0.75218  0.53532  0.96396  1.0000
  Ti  Ti29      1.0  0.97497  0.13640  0.11837  1.0000
  Ti  Ti30      1.0  0.85527  0.44802  0.12857  1.0000
  Ti  Ti31      1.0  0.72315  0.41411  0.53749  1.0000
  Ti  Ti32      1.0  0.65758  0.03253  0.81311  1.0000
  Ti  Ti33      1.0  0.35072  0.77543  0.23900  1.0000
  Ti  Ti34      1.0  0.59897  0.77086  0.63120  1.0000
  Ti  Ti35      1.0  0.79596  0.31114  0.09011  1.0000
  Ti  Ti36      1.0  0.07625  0.48528  0.76033  1.0000
  Ti  Ti37      1.0  0.08870  0.19396  0.25338  1.0000
  Ti  Ti38      1.0  0.52454  0.21411  0.60606  1.0000
  Ti  Ti39      1.0  0.42845  0.25004  0.08353  1.0000
  Ti  Ti40      1.0  0.79934  0.83647  0.41888  1.0000
  Ti  Ti41      1.0  0.57517  0.67103  0.35056  1.0000
  Ti  Ti42      1.0  0.88777  0.83907  0.65507  1.0000
  Ti  Ti43      1.0  0.27829  0.11842  0.00122  1.0000
  Ti  Ti44      1.0  0.79884  0.64702  0.23611  1.0000
  Ti  Ti45      1.0  0.50496  0.62092  0.70838  1.0000
  Ti  Ti46      1.0  0.19696  0.00369  0.06527  1.0000
  Ti  Ti47      1.0  0.88658  0.08221  0.10224  1.0000
  Ti  Ti48      1.0  0.33861  0.60213  0.14506  1.0000
  Ti  Ti49      1.0  0.67087  0.06652  0.55066  1.0000
  Ti  Ti50      1.0  0.77298  0.20794  0.02817  1.0000
  Ti  Ti51      1.0  0.51101  0.13448  0.27305  1.0000
  Ti  Ti52      1.0  0.41049  0.55679  0.55632  1.0000
  Ti  Ti53      1.0  0.18923  0.73762  0.14547  1.0000
  Ti  Ti54      1.0  0.47148  0.05138  0.11928  1.0000
  Ti  Ti55      1.0  0.07447  0.91872  0.24552  1.0000
  Ti  Ti56      1.0  0.15722  0.60498  0.19760  1.0000
  Ti  Ti57      1.0  0.06198  0.98440  0.70147  1.0000
  Ti  Ti58      1.0  0.33837  0.05624  0.96378  1.0000
  Ti  Ti59      1.0  0.98039  0.88841  0.94338  1.0000
  Ti  Ti60      1.0  0.23820  0.72776  0.59240  1.0000
  Ti  Ti61      1.0  0.49372  0.74977  0.86053  1.0000
  Ti  Ti62      1.0  0.30954  0.43914  0.44751  1.0000
  Ti  Ti63      1.0  0.16344  0.04204  0.50628  1.0000
  Ti  Ti64      1.0  0.69650  0.52936  0.63627  1.0000
  Ti  Ti65      1.0  0.93308  0.40973  0.74610  1.0000
  Ti  Ti66      1.0  0.61033  0.20284  0.70909  1.0000
  Ti  Ti67      1.0  0.71459  0.99984  0.31367  1.0000
  Ti  Ti68      1.0  0.35421  0.11501  0.69349  1.0000
  Ti  Ti69      1.0  0.60890  0.36839  0.08997  1.0000
  Ti  Ti70      1.0  0.55085  0.84114  0.41283  1.0000
  Ti  Ti71      1.0  0.58236  0.90217  0.12343  1.0000
  Ti  Ti72      1.0  0.85103  0.83105  0.15855  1.0000
  Ti  Ti73      1.0  0.30174  0.58540  0.82818  1.0000
  Ti  Ti74      1.0  0.20154  0.35964  0.94335  1.0000
  Ti  Ti75      1.0  0.88961  0.30509  0.37808  1.0000
  Ti  Ti76      1.0  0.90824  0.45432  0.17356  1.0000
  Ti  Ti77      1.0  0.68960  0.58338  0.95219  1.0000
  Ti  Ti78      1.0  0.99896  0.07613  0.18264  1.0000
  Ti  Ti79      1.0  0.38974  0.71703  0.31359  1.0000
  Ti  Ti80      1.0  0.65297  0.44241  0.46350  1.0000
  Ti  Ti81      1.0  0.69352  0.97751  0.88344  1.0000
  Ti  Ti82      1.0  0.64696  0.73591  0.72732  1.0000
  Ti  Ti83      1.0  0.77411  0.36723  0.98634  1.0000
  Ti  Ti84      1.0  0.12932  0.48501  0.83904  1.0000
  Ti  Ti85      1.0  0.10415  0.18323  0.15991  1.0000
  Ti  Ti86      1.0  0.55581  0.18468  0.73597  1.0000
  Ti  Ti87      1.0  0.49512  0.22737  0.05584  1.0000
  Ti  Ti88      1.0  0.83243  0.78461  0.43841  1.0000
  Ti  Ti89      1.0  0.60252  0.66319  0.47110  1.0000
  Ti  Ti90      1.0  0.92123  0.85489  0.58237  1.0000
  Ti  Ti91      1.0  0.45833  0.63034  0.77606  1.0000
  Ti  Ti92      1.0  0.94408  0.19461  0.74912  1.0000
  Ti  Ti93      1.0  0.74220  0.70254  0.15746  1.0000
  Ti  Ti94      1.0  0.35557  0.64923  0.10178  1.0000
  Ti  Ti95      1.0  0.18313  0.03137  0.97889  1.0000
  Ti  Ti96      1.0  0.82726  0.15281  0.10649  1.0000
  I   I1        1.0  0.81716  0.18609  0.17382  1.0000
  I   I2        1.0  0.54513  0.10943  0.35254  1.0000
  I   I3        1.0  0.64118  0.08058  0.45896  1.0000
  I   I4        1.0  0.18539  0.78159  0.13749  1.0000
  I   I5        1.0  0.48872  0.08417  0.99777  1.0000
  I   I6        1.0  0.47562  0.08615  0.16264  1.0000
  I   I7        1.0  0.11162  0.64265  0.20817  1.0000
  I   I8        1.0  0.16166  0.61840  0.11180  1.0000
  I   I9        1.0  0.10520  0.94856  0.66546  1.0000
  I   I10       1.0  0.94029  0.92632  0.75529  1.0000
  I   I11       1.0  0.44332  0.28207  0.86752  1.0000
  I   I12       1.0  0.23970  0.79807  0.20913  1.0000
  I   I13       1.0  0.35225  0.39794  0.44471  1.0000
  I   I14       1.0  0.20172  0.01416  0.57381  1.0000
  I   I15       1.0  0.53997  0.71094  0.82150  1.0000
  I   I16       1.0  0.94714  0.37970  0.81360  1.0000
  I   I17       1.0  0.63669  0.22061  0.74768  1.0000
  I   I18       1.0  0.75327  0.55517  0.75069  1.0000
  I   I19       1.0  0.35875  0.06975  0.69913  1.0000
  I   I20       1.0  0.37698  0.31580  0.80499  1.0000
  I   I21       1.0  0.63527  0.37201  0.02459  1.0000
  I   I22       1.0  0.56397  0.91431  0.02222  1.0000
  I   I23       1.0  0.59558  0.89520  0.20616  1.0000
  I   I24       1.0  0.54791  0.80207  0.39595  1.0000
  I   I25       1.0  0.21868  0.32105  0.88539  1.0000
  I   I26       1.0  0.97103  0.30236  0.37647  1.0000
  I   I27       1.0  0.29339  0.56164  0.76529  1.0000
  I   I28       1.0  0.64660  0.58448  0.95406  1.0000
  I   I29       1.0  0.04349  0.04922  0.15776  1.0000
  I   I30       1.0  0.89118  0.50203  0.20022  1.0000
  I   I31       1.0  0.61719  0.48184  0.50462  1.0000
  I   I32       1.0  0.69435  0.93312  0.85174  1.0000
  I   I33       1.0  0.38376  0.74300  0.38211  1.0000
  I   I34       1.0  0.75100  0.34504  0.05116  1.0000
  I   I35       1.0  0.12242  0.48594  0.92984  1.0000
  I   I36       1.0  0.55220  0.78807  0.64196  1.0000
  I   I37       1.0  0.08655  0.15262  0.25091  1.0000
  I   I38       1.0  0.49268  0.18629  0.04191  1.0000
  I   I39       1.0  0.07688  0.17348  0.11451  1.0000
  I   I40       1.0  0.58896  0.64788  0.53903  1.0000
  I   I41       1.0  0.92429  0.88242  0.52016  1.0000
  I   I42       1.0  0.88407  0.76580  0.43512  1.0000
  I   I43       1.0  0.37179  0.06791  0.95797  1.0000
  I   I44       1.0  0.71260  0.68078  0.16393  1.0000
  I   I45       1.0  0.50654  0.59817  0.79756  1.0000
  I   I46       1.0  0.24437  0.99695  0.05796  1.0000
  I   I47       1.0  0.87712  0.12959  0.13382  1.0000
  I   I48       1.0  0.36620  0.62349  0.18707  1.0000
  I   I49       1.0  0.70284  0.05570  0.60937  1.0000
  I   I50       1.0  0.48577  0.15261  0.37657  1.0000
  I   I51       1.0  0.45677  0.10360  0.41009  1.0000
  I   I52       1.0  0.44690  0.49472  0.65603  1.0000
  I   I53       1.0  0.22367  0.74129  0.23802  1.0000
  I   I54       1.0  0.44416  0.04898  0.18489  1.0000
  I   I55       1.0  0.03542  0.92881  0.41024  1.0000
  I   I56       1.0  0.16074  0.51351  0.15940  1.0000
  I   I57       1.0  0.06216  0.00252  0.61312  1.0000
  I   I58       1.0  0.95247  0.86028  0.80141  1.0000
  I   I59       1.0  0.92518  0.90137  0.89736  1.0000
  I   I60       1.0  0.17976  0.69947  0.61791  1.0000
  I   I61       1.0  0.31129  0.46772  0.37889  1.0000
  I   I62       1.0  0.28216  0.42651  0.40215  1.0000
  I   I63       1.0  0.23602  0.04790  0.58161  1.0000
  I   I64       1.0  0.91065  0.44512  0.65906  1.0000
  I   I65       1.0  0.90776  0.39609  0.68600  1.0000
  I   I66       1.0  0.60294  0.22488  0.63603  1.0000
  I   I67       1.0  0.67628  0.03283  0.36553  1.0000
  I   I68       1.0  0.35581  0.17744  0.80586  1.0000
  I   I69       1.0  0.63472  0.28891  0.24487  1.0000
  I   I70       1.0  0.55382  0.90477  0.44821  1.0000
  I   I71       1.0  0.63787  0.89846  0.98812  1.0000
  I   I72       1.0  0.81786  0.83989  0.21842  1.0000
  I   I73       1.0  0.37556  0.52412  0.77215  1.0000
  I   I74       1.0  0.89451  0.31804  0.46124  1.0000
  I   I75       1.0  0.87995  0.35685  0.36164  1.0000
  I   I76       1.0  0.76584  0.48924  0.95695  1.0000
  I   I77       1.0  0.67679  0.63102  0.92074  1.0000
  I   I78       1.0  0.01552  0.11310  0.17422  1.0000
  I   I79       1.0  0.43974  0.70050  0.31461  1.0000
  I   I80       1.0  0.63400  0.41552  0.49211  1.0000
  I   I81       1.0  0.65702  0.06587  0.86855  1.0000
  I   I82       1.0  0.61970  0.72086  0.65609  1.0000
  I   I83       1.0  0.76955  0.33839  0.16137  1.0000
  I   I84       1.0  0.12974  0.44200  0.79709  1.0000
  I   I85       1.0  0.12146  0.20439  0.10662  1.0000
  I   I86       1.0  0.51080  0.19279  0.67881  1.0000
  I   I87       1.0  0.46765  0.25044  0.13280  1.0000
  I   I88       1.0  0.76746  0.86871  0.36749  1.0000
  I   I89       1.0  0.60078  0.69747  0.38427  1.0000
  I   I90       1.0  0.88090  0.85317  0.74942  1.0000
  I   I91       1.0  0.47624  0.59506  0.70757  1.0000
  I   I92       1.0  0.94353  0.22128  0.68008  1.0000
  I   I93       1.0  0.71550  0.74954  0.16451  1.0000
  I   I94       1.0  0.37438  0.59920  0.08632  1.0000
  I   I95       1.0  0.21025  0.03852  0.91870  1.0000
  I   I96       1.0  0.80908  0.13256  0.15767  1.0000
  I   I97       1.0  0.99074  0.60233  0.00740  1.0000
  I   I98       1.0  0.69628  0.07193  0.48239  1.0000
  I   I99       1.0  0.47382  0.15679  0.22131  1.0000
  I   I100      1.0  0.49327  0.45488  0.53516  1.0000
  I   I101      1.0  0.36660  0.57167  0.52604  1.0000
  I   I102      1.0  0.28528  0.74110  0.18424  1.0000
  I   I103      1.0  0.07805  0.96147  0.39906  1.0000
  I   I104      1.0  0.11643  0.90632  0.19586  1.0000
  I   I105      1.0  0.02132  0.97900  0.56470  1.0000
  I   I106      1.0  0.26536  0.70632  0.66032  1.0000
  I   I107      1.0  0.98993  0.84641  0.97947  1.0000
  I   I108      1.0  0.25875  0.67849  0.56168  1.0000
  I   I109      1.0  0.57398  0.75566  0.84004  1.0000
  I   I110      1.0  0.36474  0.43474  0.54155  1.0000
  I   I111      1.0  0.16571  0.07239  0.66804  1.0000
  I   I112      1.0  0.65718  0.52857  0.65241  1.0000
  I   I113      1.0  0.97881  0.38849  0.65573  1.0000
  I   I114      1.0  0.21009  0.19604  0.40422  1.0000
  I   I115      1.0  0.74048  0.01489  0.37210  1.0000
  I   I116      1.0  0.69820  0.96690  0.31069  1.0000
  I   I117      1.0  0.40829  0.09375  0.72362  1.0000
  I   I118      1.0  0.50371  0.88158  0.40537  1.0000
  I   I119      1.0  0.50695  0.92929  0.32876  1.0000
  I   I120      1.0  0.87294  0.85616  0.17100  1.0000
  I   I121      1.0  0.30222  0.54128  0.88650  1.0000
  I   I122      1.0  0.15224  0.35467  0.86597  1.0000
  I   I123      1.0  0.92585  0.35815  0.25184  1.0000
  I   I124      1.0  0.83990  0.50042  0.12175  1.0000
  I   I125      1.0  0.73383  0.58975  0.96407  1.0000
  I   I126      1.0  0.01055  0.07528  0.26837  1.0000
  I   I127      1.0  0.30376  0.81253  0.25353  1.0000
  I   I128      1.0  0.75701  0.42313  0.49071  1.0000
  I   I129      1.0  0.73484  0.94817  0.92372  1.0000
  I   I130      1.0  0.07317  0.44468  0.77009  1.0000
  I   I131      1.0  0.61792  0.80056  0.59787  1.0000
  I   I132      1.0  0.80066  0.37318  0.92680  1.0000
  I   I133      1.0  0.41091  0.23862  0.00824  1.0000
  I   I134      1.0  0.51067  0.26029  0.62720  1.0000
  I   I135      1.0  0.56613  0.13569  0.72435  1.0000
  I   I136      1.0  0.91858  0.80066  0.69949  1.0000
  I   I137      1.0  0.78221  0.79992  0.44275  1.0000
  I   I138      1.0  0.53937  0.70780  0.30866  1.0000
  I   I139      1.0  0.51841  0.65360  0.75059  1.0000
  I   I140      1.0  0.89893  0.21929  0.77824  1.0000
  I   I141      1.0  0.77771  0.64745  0.31379  1.0000
  I   I142      1.0  0.33466  0.67759  0.03132  1.0000
  I   I143      1.0  0.14313  0.04836  0.93740  1.0000
  I   I144      1.0  0.90600  0.06759  0.18524  1.0000
  I   I145      1.0  0.63632  0.07042  0.62145  1.0000
  I   I146      1.0  0.53276  0.11597  0.19858  1.0000
  I   I147      1.0  0.94959  0.65294  0.91844  1.0000
  I   I148      1.0  0.40014  0.57693  0.63741  1.0000
  I   I149      1.0  0.20389  0.69061  0.11924  1.0000
  I   I150      1.0  0.51694  0.01268  0.12454  1.0000
  I   I151      1.0  0.08273  0.87459  0.21773  1.0000
  I   I152      1.0  0.19268  0.55580  0.17208  1.0000
  I   I153      1.0  0.10139  0.93121  0.56344  1.0000
  I   I154      1.0  0.23606  0.15836  0.01103  1.0000
  I   I155      1.0  0.40173  0.36086  0.88347  1.0000
  I   I156      1.0  0.14715  0.72264  0.51257  1.0000
  I   I157      1.0  0.51043  0.78715  0.88040  1.0000
  I   I158      1.0  0.17684  0.02281  0.42883  1.0000
  I   I159      1.0  0.45310  0.76527  0.91314  1.0000
  I   I160      1.0  0.69192  0.52740  0.54128  1.0000
  I   I161      1.0  0.19232  0.19828  0.29203  1.0000
  I   I162      1.0  0.66128  0.58993  0.70794  1.0000
  I   I163      1.0  0.70879  0.02926  0.24528  1.0000
  I   I164      1.0  0.30839  0.14835  0.69552  1.0000
  I   I165      1.0  0.56701  0.37900  0.04520  1.0000
  I   I166      1.0  0.59873  0.82195  0.39806  1.0000
  I   I167      1.0  0.61171  0.85397  0.99206  1.0000
  I   I168      1.0  0.35250  0.90870  0.58851  1.0000
  I   I169      1.0  0.20446  0.32010  0.99744  1.0000
  I   I170      1.0  0.11969  0.34115  0.94154  1.0000
  I   I171      1.0  0.36590  0.47922  0.85405  1.0000
  I   I172      1.0  0.92396  0.45573  0.08698  1.0000
  I   I173      1.0  0.99953  0.10917  0.05430  1.0000
  I   I174      1.0  0.85159  0.40845  0.15505  1.0000
  I   I175      1.0  0.72948  0.42743  0.61676  1.0000
  I   I176      1.0  0.67122  0.01536  0.94207  1.0000
  I   I177      1.0  0.39538  0.67114  0.32611  1.0000
  I   I178      1.0  0.67296  0.76139  0.72981  1.0000
  I   I179      1.0  0.84415  0.29701  0.10977  1.0000
  I   I180      1.0  0.08597  0.52054  0.81244  1.0000
  I   I181      1.0  0.05161  0.23913  0.28704  1.0000
  I   I182      1.0  0.52622  0.20278  0.80218  1.0000
  I   I183      1.0  0.38976  0.29501  0.08290  1.0000
  I   I184      1.0  0.82076  0.79387  0.34771  1.0000
  I   I185      1.0  0.55117  0.65710  0.40700  1.0000
  I   I186      1.0  0.96934  0.82810  0.59798  1.0000
  I   I187      1.0  0.95305  0.14809  0.73021  1.0000
  I   I188      1.0  0.76454  0.70598  0.24224  1.0000
  I   I189      1.0  0.55216  0.59129  0.71043  1.0000
  I   I190      1.0  0.19693  0.01526  0.14836  1.0000
  I   I191      1.0  0.82491  0.19297  0.06225  1.0000
  I   I192      1.0  0.33443  0.58602  0.22883  1.0000
  I   I193      1.0  0.67153  0.02537  0.52377  1.0000
  I   I194      1.0  0.77158  0.20857  0.94250  1.0000
  I   I195      1.0  0.98606  0.67132  0.02090  1.0000
  I   I196      1.0  0.46812  0.52565  0.56890  1.0000
  I   I197      1.0  0.30693  0.10370  0.91474  1.0000
  I   I198      1.0  0.47020  0.03297  0.03056  1.0000
  I   I199      1.0  0.04422  0.93405  0.16710  1.0000
  I   I200      1.0  0.17322  0.62770  0.24665  1.0000
  I   I201      1.0  0.06380  0.91095  0.61474  1.0000
  I   I202      1.0  0.94824  0.92763  0.99261  1.0000
  I   I203      1.0  0.64502  0.36091  0.15662  1.0000
  I   I204      1.0  0.12715  0.76411  0.63129  1.0000
  I   I205      1.0  0.31124  0.39909  0.51626  1.0000
  I   I206      1.0  0.13425  0.02154  0.53168  1.0000
  I   I207      1.0  0.46239  0.78722  0.80576  1.0000
  I   I208      1.0  0.94044  0.48643  0.68151  1.0000
  I   I209      1.0  0.26281  0.21028  0.31533  1.0000
  I   I210      1.0  0.72534  0.55560  0.62936  1.0000
  I   I211      1.0  0.79806  0.98707  0.20318  1.0000
  I   I212      1.0  0.41482  0.11758  0.81890  1.0000
  I   I213      1.0  0.68762  0.28741  0.20503  1.0000
  I   I214      1.0  0.53920  0.86247  0.31006  1.0000
  I   I215      1.0  0.64699  0.85678  0.10153  1.0000
  I   I216      1.0  0.41003  0.84816  0.52363  1.0000
  I   I217      1.0  0.17906  0.28436  0.92034  1.0000
  I   I218      1.0  0.92420  0.29697  0.30869  1.0000
  I   I219      1.0  0.34849  0.57177  0.86783  1.0000
  I   I220      1.0  0.71677  0.55260  0.88599  1.0000
  I   I221      1.0  0.99718  0.16199  0.10129  1.0000
  I   I222      1.0  0.85487  0.43314  0.04849  1.0000
  I   I223      1.0  0.70340  0.39718  0.46899  1.0000
  I   I224      1.0  0.70732  0.99588  0.81901  1.0000
  I   I225      1.0  0.36403  0.81031  0.23324  1.0000
  I   I226      1.0  0.68767  0.69776  0.72556  1.0000
  I   I227      1.0  0.79555  0.27312  0.07824  1.0000
  I   I228      1.0  0.03200  0.51882  0.78029  1.0000
  I   I229      1.0  0.14638  0.13970  0.15425  1.0000
  I   I230      1.0  0.54341  0.20964  0.52421  1.0000
  I   I231      1.0  0.51685  0.22295  0.97432  1.0000
  I   I232      1.0  0.77898  0.86020  0.49032  1.0000
  I   I233      1.0  0.62016  0.62823  0.39262  1.0000
  I   I234      1.0  0.86903  0.88192  0.58638  1.0000
  I   I235      1.0  0.27343  0.10671  0.09099  1.0000
  I   I236      1.0  0.84209  0.60341  0.24482  1.0000
  I   I237      1.0  0.51554  0.63526  0.63130  1.0000
  I   I238      1.0  0.21460  0.95596  0.07843  1.0000
  I   I239      1.0  0.85752  0.11280  0.04332  1.0000
  I   I240      1.0  0.34958  0.68802  0.15502  1.0000
  I   I241      1.0  0.60821  0.04650  0.52926  1.0000
  I   I242      1.0  0.52469  0.08616  0.47021  1.0000
  I   I243      1.0  0.02982  0.63149  0.91366  1.0000
  I   I244      1.0  0.41789  0.46931  0.56878  1.0000
  I   I245      1.0  0.17392  0.73315  0.22843  1.0000
  I   I246      1.0  0.53299  0.07347  0.07517  1.0000
  I   I247      1.0  0.07323  0.96341  0.27589  1.0000
  I   I248      1.0  0.15121  0.56900  0.24959  1.0000
  I   I249      1.0  0.03462  0.96262  0.69896  1.0000
  I   I250      1.0  0.97280  0.92834  0.88097  1.0000
  I   I251      1.0  0.43265  0.32781  0.75694  1.0000
  I   I252      1.0  0.26455  0.74403  0.55186  1.0000
  I   I253      1.0  0.35215  0.39862  0.63002  1.0000
  I   I254      1.0  0.19096  0.06756  0.48796  1.0000
  I   I255      1.0  0.48107  0.71398  0.85080  1.0000
  I   I256      1.0  0.89940  0.44459  0.79116  1.0000
  I   I257      1.0  0.19261  0.26179  0.34340  1.0000
  I   I258      1.0  0.72942  0.48410  0.63064  1.0000
  I   I259      1.0  0.81161  0.98952  0.31966  1.0000
  I   I260      1.0  0.36130  0.10769  0.60454  1.0000
  I   I261      1.0  0.64490  0.34457  0.27363  1.0000
  I   I262      1.0  0.57294  0.90500  0.33780  1.0000
  I   I263      1.0  0.59218  0.85755  0.10854  1.0000
  I   I264      1.0  0.38215  0.90527  0.45073  1.0000
  I   I265      1.0  0.19605  0.39354  0.88535  1.0000
  I   I266      1.0  0.90972  0.25729  0.36448  1.0000
  I   I267      1.0  0.40017  0.51040  0.88132  1.0000
  I   I268      1.0  0.75550  0.54409  0.04753  1.0000
  I   I269      1.0  0.97888  0.04924  0.16203  1.0000
  I   I270      1.0  0.94449  0.42555  0.22118  1.0000
  I   I271      1.0  0.69099  0.45595  0.48492  1.0000
  I   I272      1.0  0.60932  0.05475  0.79836  1.0000
  I   I273      1.0  0.39070  0.72166  0.22174  1.0000
  I   I274      1.0  0.64398  0.74278  0.81102  1.0000
  I   I275      1.0  0.81191  0.32233  0.99327  1.0000
  I   I276      1.0  0.08208  0.48838  0.67878  1.0000
  I   I277      1.0  0.10387  0.18572  0.33541  1.0000
  I   I278      1.0  0.57347  0.17779  0.64171  1.0000
  I   I279      1.0  0.41331  0.22952  0.15141  1.0000
  I   I280      1.0  0.82718  0.79360  0.52512  1.0000
  I   I281      1.0  0.59371  0.63730  0.28837  1.0000
  I   I282      1.0  0.85464  0.82596  0.64949  1.0000
  I   I283      1.0  0.31170  0.12878  0.02758  1.0000
  I   I284      1.0  0.78087  0.65142  0.15624  1.0000
  I   I285      1.0  0.45443  0.65973  0.70167  1.0000
  I   I286      1.0  0.18038  0.06382  0.04081  1.0000
  I   I287      1.0  0.79156  0.15376  0.03044  1.0000
  I   I288      1.0  0.30447  0.64712  0.11309  1.0000
  I   I289      1.0  0.57679  0.11696  0.53823  1.0000
  I   I290      1.0  0.74178  0.25560  0.02606  1.0000
  I   I291      1.0  0.50093  0.08288  0.31365  1.0000
  I   I292      1.0  0.43177  0.52074  0.48396  1.0000
  I   I293      1.0  0.14195  0.75093  0.11518  1.0000
  I   I294      1.0  0.55184  0.01759  0.99792  1.0000
  I   I295      1.0  0.09194  0.89952  0.33064  1.0000
  I   I296      1.0  0.09550  0.54288  0.20364  1.0000
  I   I297      1.0  0.02861  0.02758  0.71837  1.0000
  I   I298      1.0  0.29112  0.06430  0.98453  1.0000
  I   I299      1.0  0.00510  0.86495  0.86544  1.0000
  I   I300      1.0  0.20444  0.73328  0.52189  1.0000
  I   I301      1.0  0.58836  0.72521  0.94202  1.0000
  I   I302      1.0  0.28080  0.47409  0.49483  1.0000
  I   I303      1.0  0.17869  0.11460  0.56687  1.0000
  I   I304      1.0  0.70260  0.52855  0.72838  1.0000
  I   I305      1.0  0.97541  0.44113  0.58522  1.0000
  I   I306      1.0  0.55989  0.22690  0.73977  1.0000
  I   I307      1.0  0.76420  0.05323  0.27445  1.0000
  I   I308      1.0  0.34810  0.11858  0.79984  1.0000
  I   I309      1.0  0.59178  0.33892  0.13913  1.0000
  I   I310      1.0  0.55578  0.83397  0.49876  1.0000
  I   I311      1.0  0.53689  0.92368  0.14800  1.0000
  I   I312      1.0  0.88029  0.78208  0.16236  1.0000
  I   I313      1.0  0.25615  0.60892  0.85514  1.0000
  I   I314      1.0  0.24122  0.36236  0.96807  1.0000
  I   I315      1.0  0.92746  0.37653  0.38065  1.0000
  I   I316      1.0  0.90325  0.41411  0.14272  1.0000
  I   I317      1.0  0.78702  0.53469  0.90708  1.0000
  I   I318      1.0  0.94805  0.12028  0.17689  1.0000
  I   I319      1.0  0.33795  0.77781  0.15727  1.0000
  I   I320      1.0  0.75900  0.36535  0.53242  1.0000
  I   I321      1.0  0.66266  0.04774  0.73373  1.0000
  I   I322      1.0  0.59686  0.76400  0.54250  1.0000
  I   I323      1.0  0.75806  0.40218  0.04166  1.0000
  I   I324      1.0  0.15580  0.50583  0.86179  1.0000
  I   I325      1.0  0.13368  0.18779  0.23646  1.0000
  I   I326      1.0  0.60246  0.16630  0.77483  1.0000
  I   I327      1.0  0.53616  0.22423  0.09239  1.0000
  I   I328      1.0  0.83992  0.84269  0.41996  1.0000
  I   I329      1.0  0.57069  0.70607  0.48320  1.0000
  I   I330      1.0  0.91281  0.87193  0.66403  1.0000
  I   I331      1.0  0.42633  0.61400  0.79474  1.0000
  I   I332      1.0  0.33612  0.06120  0.05725  1.0000
  I   I333      1.0  0.76495  0.70361  0.08338  1.0000
  I   I334      1.0  0.39668  0.65027  0.09247  1.0000
  I   I335      1.0  0.20455  0.98058  0.97260  1.0000
  I   I336      1.0  0.86606  0.05239  0.10715  1.0000
  I   I337      1.0  0.63325  0.11666  0.57343  1.0000
  I   I338      1.0  0.73331  0.20096  0.04810  1.0000
  I   I339      1.0  0.51869  0.17337  0.27838  1.0000
  I   I340      1.0  0.41891  0.59248  0.53255  1.0000
  I   I341      1.0  0.23970  0.71765  0.12099  1.0000
  I   I342      1.0  0.43379  0.08619  0.08043  1.0000
  I   I343      1.0  0.02361  0.93007  0.28889  1.0000
  I   I344      1.0  0.10366  0.58915  0.12518  1.0000
  I   I345      1.0  0.07789  0.97039  0.77821  1.0000
  I   I346      1.0  0.36885  0.01263  0.99063  1.0000
  I   I347      1.0  0.01494  0.89565  0.97029  1.0000
  I   I348      1.0  0.19558  0.75453  0.63582  1.0000
  I   I349      1.0  0.52684  0.71993  0.95412  1.0000
  I   I350      1.0  0.38891  0.35413  0.54229  1.0000
  I   I351      1.0  0.13589  0.08265  0.56071  1.0000
  I   I352      1.0  0.70230  0.61536  0.71484  1.0000
  I   I353      1.0  0.97018  0.42472  0.76096  1.0000
  I   I354      1.0  0.65218  0.16150  0.69618  1.0000
  I   I355      1.0  0.76114  0.96563  0.29185  1.0000
  I   I356      1.0  0.36204  0.16175  0.66876  1.0000
  I   I357      1.0  0.58389  0.41524  0.11547  1.0000
  I   I358      1.0  0.33500  0.87365  0.48232  1.0000
  I   I359      1.0  0.59361  0.93838  0.09452  1.0000
  I   I360      1.0  0.83915  0.83897  0.07413  1.0000
  I   I361      1.0  0.30104  0.61845  0.76600  1.0000
  I   I362      1.0  0.15650  0.38061  0.98050  1.0000
  I   I363      1.0  0.84587  0.31261  0.37530  1.0000
  I   I364      1.0  0.86192  0.45679  0.21916  1.0000
  I   I365      1.0  0.68874  0.57034  0.04118  1.0000
  I   I366      1.0  0.92743  0.17284  0.12504  1.0000
  I   I367      1.0  0.33717  0.74492  0.28866  1.0000
  I   I368      1.0  0.64573  0.44373  0.37882  1.0000
  I   I369      1.0  0.64578  0.99631  0.84509  1.0000
  I   I370      1.0  0.60079  0.78403  0.72567  1.0000
  I   I371      1.0  0.73297  0.37924  0.93522  1.0000
  I   I372      1.0  0.15442  0.47420  0.75783  1.0000
  I   I373      1.0  0.06752  0.23385  0.18376  1.0000
  I   I374      1.0  0.47966  0.23982  0.56945  1.0000
  I   I375      1.0  0.45591  0.26336  0.01479  1.0000
  I   I376      1.0  0.84881  0.73814  0.44834  1.0000
  I   I377      1.0  0.64391  0.66034  0.50456  1.0000
  I   I378      1.0  0.91727  0.81394  0.57442  1.0000
  I   I379      1.0  0.44940  0.66224  0.83937  1.0000
  I   I380      1.0  0.96769  0.20912  0.80263  1.0000
  I   I381      1.0  0.82606  0.66813  0.21437  1.0000
  I   I382      1.0  0.32838  0.57065  0.10613  1.0000
  I   I383      1.0  0.14185  0.04167  0.05669  1.0000
  I   I384      1.0  0.92207  0.05538  0.04594  1.0000
