data_image0
_chemical_formula_structural       Ti96I384
_chemical_formula_sum              "Ti96 I384"
_cell_length_a       39.9843
_cell_length_b       39.4314
_cell_length_c       22.2524
_cell_angle_alpha    88.7757
_cell_angle_beta     88.7757
_cell_angle_gamma    62.1586

_space_group_name_H-M_alt    "P 1"
_space_group_IT_number       1

loop_
  _space_group_symop_operation_xyz
  'x, y, z'

loop_
  _atom_site_type_symbol
  _atom_site_label
  _atom_site_symmetry_multiplicity
  _atom_site_fract_x
  _atom_site_fract_y
  _atom_site_fract_z
  _atom_site_occupancy
  Ti  Ti1       1.0  0.15696  0.09735  0.13720  1.0000
  Ti  Ti2       1.0  0.17342  0.09235  0.47001  1.0000
  Ti  Ti3       1.0  0.16667  0.08089  0.81813  1.0000
  Ti  Ti4       1.0  0.15887  0.31349  0.32135  1.0000
  Ti  Ti5       1.0  0.17483  0.32057  0.66265  1.0000
  Ti  Ti6       1.0  0.17222  0.31987  0.99770  1.0000
  Ti  Ti7       1.0  0.15417  0.59779  0.37115  1.0000
  Ti  Ti8       1.0  0.15311  0.59404  0.73100  1.0000
  Ti  Ti9       1.0  0.12964  0.60107  0.05958  1.0000
  Ti  Ti10      1.0  0.13830  0.86374  0.27281  1.0000
  Ti  Ti11      1.0  0.12559  0.88994  0.60529  1.0000
  Ti  Ti12      1.0  0.13490  0.87995  0.92840  1.0000
  Ti  Ti13      1.0  0.44700  0.05255  0.26383  1.0000
  Ti  Ti14      1.0  0.46905  0.05898  0.60580  1.0000
  Ti  Ti15      1.0  0.44169  0.07765  0.93970  1.0000
  Ti  Ti16      1.0  0.39593  0.37628  0.35155  1.0000
  Ti  Ti17      1.0  0.39435  0.36872  0.68472  1.0000
  Ti  Ti18      1.0  0.39470  0.38036  0.00205  1.0000
  Ti  Ti19      1.0  0.36295  0.61465  0.25946  1.0000
  Ti  Ti20      1.0  0.37175  0.61921  0.61457  1.0000
  Ti  Ti21      1.0  0.38814  0.62991  0.94636  1.0000
  Ti  Ti22      1.0  0.43516  0.80971  0.09017  1.0000
  Ti  Ti23      1.0  0.43378  0.80902  0.43218  1.0000
  Ti  Ti24      1.0  0.45258  0.79589  0.75632  1.0000
  Ti  Ti25      1.0  0.65979  0.10495  0.26914  1.0000
  Ti  Ti26      1.0  0.66159  0.10732  0.62730  1.0000
  Ti  Ti27      1.0  0.64599  0.12381  0.95615  1.0000
  Ti  Ti28      1.0  0.62123  0.39758  0.25576  1.0000
  Ti  Ti29      1.0  0.60997  0.40573  0.59689  1.0000
  Ti  Ti30      1.0  0.62342  0.40152  0.93168  1.0000
  Ti  Ti31      1.0  0.67841  0.56590  0.12240  1.0000
  Ti  Ti32      1.0  0.66330  0.56379  0.45663  1.0000
  Ti  Ti33      1.0  0.67858  0.57046  0.79573  1.0000
  Ti  Ti34      1.0  0.66372  0.83549  0.23426  1.0000
  Ti  Ti35      1.0  0.68012  0.81624  0.55639  1.0000
  Ti  Ti36      1.0  0.67279  0.82325  0.90033  1.0000
  Ti  Ti37      1.0  0.86555  0.11711  0.19862  1.0000
  Ti  Ti38      1.0  0.87391  0.11221  0.53809  1.0000
  Ti  Ti39      1.0  0.87151  0.11660  0.85627  1.0000
  Ti  Ti40      1.0  0.90790  0.32614  0.14871  1.0000
  Ti  Ti41      1.0  0.90045  0.33493  0.50450  1.0000
  Ti  Ti42      1.0  0.91289  0.32382  0.82941  1.0000
  Ti  Ti43      1.0  0.92796  0.56681  0.27204  1.0000
  Ti  Ti44      1.0  0.94129  0.56856  0.60677  1.0000
  Ti  Ti45      1.0  0.92792  0.56472  0.94766  1.0000
  Ti  Ti46      1.0  0.90062  0.83454  0.32966  1.0000
  Ti  Ti47      1.0  0.88749  0.85657  0.66959  1.0000
  Ti  Ti48      1.0  0.88064  0.85836  0.01008  1.0000
  Ti  Ti49      1.0  0.09232  0.15093  0.96423  1.0000
  Ti  Ti50      1.0  0.09489  0.14998  0.31810  1.0000
  Ti  Ti51      1.0  0.10718  0.14274  0.63789  1.0000
  Ti  Ti52      1.0  0.10151  0.37632  0.15519  1.0000
  Ti  Ti53      1.0  0.09588  0.36116  0.48818  1.0000
  Ti  Ti54      1.0  0.10699  0.35866  0.84558  1.0000
  Ti  Ti55      1.0  0.08154  0.65824  0.22960  1.0000
  Ti  Ti56      1.0  0.11076  0.65309  0.55374  1.0000
  Ti  Ti57      1.0  0.08262  0.66379  0.89273  1.0000
  Ti  Ti58      1.0  0.06142  0.91812  0.09834  1.0000
  Ti  Ti59      1.0  0.06539  0.92449  0.42937  1.0000
  Ti  Ti60      1.0  0.06801  0.92954  0.78198  1.0000
  Ti  Ti61      1.0  0.36731  0.12916  0.09882  1.0000
  Ti  Ti62      1.0  0.39004  0.11876  0.44780  1.0000
  Ti  Ti63      1.0  0.39106  0.13139  0.76618  1.0000
  Ti  Ti64      1.0  0.32808  0.41233  0.18189  1.0000
  Ti  Ti65      1.0  0.33756  0.42720  0.52285  1.0000
  Ti  Ti66      1.0  0.31348  0.42023  0.84412  1.0000
  Ti  Ti67      1.0  0.31626  0.69589  0.09493  1.0000
  Ti  Ti68      1.0  0.30609  0.67629  0.44164  1.0000
  Ti  Ti69      1.0  0.32081  0.68307  0.77962  1.0000
  Ti  Ti70      1.0  0.40023  0.87220  0.92700  1.0000
  Ti  Ti71      1.0  0.35162  0.89731  0.29706  1.0000
  Ti  Ti72      1.0  0.40333  0.88349  0.60832  1.0000
  Ti  Ti73      1.0  0.59158  0.19218  0.11387  1.0000
  Ti  Ti74      1.0  0.61146  0.17393  0.44552  1.0000
  Ti  Ti75      1.0  0.59445  0.17070  0.78713  1.0000
  Ti  Ti76      1.0  0.54784  0.46619  0.09362  1.0000
  Ti  Ti77      1.0  0.56137  0.46283  0.43416  1.0000
  Ti  Ti78      1.0  0.55883  0.46935  0.76882  1.0000
  Ti  Ti79      1.0  0.60621  0.62218  0.95772  1.0000
  Ti  Ti80      1.0  0.61254  0.63309  0.29729  1.0000
  Ti  Ti81      1.0  0.61978  0.62669  0.62730  1.0000
  Ti  Ti82      1.0  0.62074  0.90127  0.06707  1.0000
  Ti  Ti83      1.0  0.62025  0.89776  0.41078  1.0000
  Ti  Ti84      1.0  0.62070  0.88033  0.72226  1.0000
  Ti  Ti85      1.0  0.80882  0.18931  0.03680  1.0000
  Ti  Ti86      1.0  0.82018  0.18433  0.36907  1.0000
  Ti  Ti87      1.0  0.82298  0.18254  0.70341  1.0000
  Ti  Ti88      1.0  0.82880  0.38150  0.99064  1.0000
  Ti  Ti89      1.0  0.84373  0.40027  0.30907  1.0000
  Ti  Ti90      1.0  0.85056  0.40297  0.66678  1.0000
  Ti  Ti91      1.0  0.86785  0.61451  0.11132  1.0000
  Ti  Ti92      1.0  0.87165  0.62322  0.43841  1.0000
  Ti  Ti93      1.0  0.86882  0.62275  0.77832  1.0000
  Ti  Ti94      1.0  0.82140  0.91149  0.18013  1.0000
  Ti  Ti95      1.0  0.82940  0.90316  0.50021  1.0000
  Ti  Ti96      1.0  0.82954  0.92356  0.84248  1.0000
  I   I1        1.0  0.09419  0.10534  0.21622  1.0000
  I   I2        1.0  0.10062  0.10271  0.53109  1.0000
  I   I3        1.0  0.08942  0.10466  0.86963  1.0000
  I   I4        1.0  0.09395  0.32352  0.39438  1.0000
  I   I5        1.0  0.11607  0.31521  0.73624  1.0000
  I   I6        1.0  0.10238  0.33643  0.05875  1.0000
  I   I7        1.0  0.08733  0.62334  0.45661  1.0000
  I   I8        1.0  0.07085  0.62598  0.77661  1.0000
  I   I9        1.0  0.05946  0.63357  0.13114  1.0000
  I   I10       1.0  0.06731  0.88004  0.33268  1.0000
  I   I11       1.0  0.06432  0.89004  0.66865  1.0000
  I   I12       1.0  0.07330  0.87312  0.99348  1.0000
  I   I13       1.0  0.38430  0.06930  0.33894  1.0000
  I   I14       1.0  0.38873  0.09517  0.66176  1.0000
  I   I15       1.0  0.36745  0.10042  0.98428  1.0000
  I   I16       1.0  0.32745  0.39617  0.40767  1.0000
  I   I17       1.0  0.31721  0.37854  0.73664  1.0000
  I   I18       1.0  0.33445  0.37620  0.07637  1.0000
  I   I19       1.0  0.28930  0.65870  0.32961  1.0000
  I   I20       1.0  0.30413  0.64499  0.68830  1.0000
  I   I21       1.0  0.31373  0.65186  0.00421  1.0000
  I   I22       1.0  0.29284  0.90212  0.24260  1.0000
  I   I23       1.0  0.36286  0.86805  0.52064  1.0000
  I   I24       1.0  0.38125  0.84903  0.81899  1.0000
  I   I25       1.0  0.59161  0.14594  0.33801  1.0000
  I   I26       1.0  0.58343  0.14648  0.67238  1.0000
  I   I27       1.0  0.57092  0.15690  0.02871  1.0000
  I   I28       1.0  0.55052  0.42475  0.33526  1.0000
  I   I29       1.0  0.53215  0.45880  0.65623  1.0000
  I   I30       1.0  0.54456  0.43035  0.99325  1.0000
  I   I31       1.0  0.59509  0.61049  0.19492  1.0000
  I   I32       1.0  0.59998  0.58736  0.53552  1.0000
  I   I33       1.0  0.60117  0.59634  0.84834  1.0000
  I   I34       1.0  0.59638  0.88690  0.29332  1.0000
  I   I35       1.0  0.60296  0.86027  0.62024  1.0000
  I   I36       1.0  0.60379  0.87148  0.96968  1.0000
  I   I37       1.0  0.79473  0.16946  0.26066  1.0000
  I   I38       1.0  0.80099  0.16364  0.59626  1.0000
  I   I39       1.0  0.79647  0.16102  0.92133  1.0000
  I   I40       1.0  0.83590  0.35870  0.21689  1.0000
  I   I41       1.0  0.82980  0.39516  0.55705  1.0000
  I   I42       1.0  0.83630  0.34485  0.88189  1.0000
  I   I43       1.0  0.84986  0.60220  0.32643  1.0000
  I   I44       1.0  0.86386  0.60280  0.66031  1.0000
  I   I45       1.0  0.86655  0.56727  0.01904  1.0000
  I   I46       1.0  0.81913  0.87321  0.39941  1.0000
  I   I47       1.0  0.81604  0.88914  0.73503  1.0000
  I   I48       1.0  0.80990  0.87799  0.07807  1.0000
  I   I49       1.0  0.11392  0.17420  0.06618  1.0000
  I   I50       1.0  0.12260  0.16457  0.41949  1.0000
  I   I51       1.0  0.13845  0.15301  0.74495  1.0000
  I   I52       1.0  0.12221  0.38524  0.26722  1.0000
  I   I53       1.0  0.12056  0.38651  0.58839  1.0000
  I   I54       1.0  0.11609  0.40047  0.93086  1.0000
  I   I55       1.0  0.11728  0.67369  0.32447  1.0000
  I   I56       1.0  0.12052  0.66596  0.67128  1.0000
  I   I57       1.0  0.10489  0.68222  0.99777  1.0000
  I   I58       1.0  0.07549  0.94577  0.19848  1.0000
  I   I59       1.0  0.08394  0.95870  0.53067  1.0000
  I   I60       1.0  0.08666  0.95747  0.88271  1.0000
  I   I61       1.0  0.39835  0.12942  0.20816  1.0000
  I   I62       1.0  0.42290  0.13909  0.53525  1.0000
  I   I63       1.0  0.41899  0.14836  0.87062  1.0000
  I   I64       1.0  0.34612  0.44537  0.28654  1.0000
  I   I65       1.0  0.35536  0.44657  0.62839  1.0000
  I   I66       1.0  0.32978  0.45227  0.94884  1.0000
  I   I67       1.0  0.33163  0.70316  0.21336  1.0000
  I   I68       1.0  0.33055  0.68915  0.55366  1.0000
  I   I69       1.0  0.36268  0.69888  0.86370  1.0000
  I   I70       1.0  0.43341  0.87335  0.03991  1.0000
  I   I71       1.0  0.41631  0.88321  0.38515  1.0000
  I   I72       1.0  0.45978  0.86093  0.70467  1.0000
  I   I73       1.0  0.64460  0.17590  0.19971  1.0000
  I   I74       1.0  0.64521  0.17718  0.54952  1.0000
  I   I75       1.0  0.61618  0.19632  0.88205  1.0000
  I   I76       1.0  0.57943  0.47969  0.20108  1.0000
  I   I77       1.0  0.59727  0.47078  0.52902  1.0000
  I   I78       1.0  0.59730  0.47726  0.87050  1.0000
  I   I79       1.0  0.63823  0.64187  0.05604  1.0000
  I   I80       1.0  0.65050  0.63719  0.40070  1.0000
  I   I81       1.0  0.64944  0.64106  0.73439  1.0000
  I   I82       1.0  0.66499  0.89997  0.17070  1.0000
  I   I83       1.0  0.65159  0.89784  0.52470  1.0000
  I   I84       1.0  0.64856  0.89569  0.83126  1.0000
  I   I85       1.0  0.84074  0.19764  0.13551  1.0000
  I   I86       1.0  0.86455  0.17924  0.46616  1.0000
  I   I87       1.0  0.85975  0.19076  0.79834  1.0000
  I   I88       1.0  0.87212  0.39625  0.09172  1.0000
  I   I89       1.0  0.88021  0.40401  0.40302  1.0000
  I   I90       1.0  0.87329  0.40790  0.78108  1.0000
  I   I91       1.0  0.89428  0.63924  0.20456  1.0000
  I   I92       1.0  0.90860  0.63792  0.52987  1.0000
  I   I93       1.0  0.88354  0.63903  0.88766  1.0000
  I   I94       1.0  0.85668  0.91930  0.27704  1.0000
  I   I95       1.0  0.86334  0.92676  0.59160  1.0000
  I   I96       1.0  0.84551  0.93793  0.95192  1.0000
  I   I97       1.0  0.17109  0.11871  0.91202  1.0000
  I   I98       1.0  0.16548  0.12497  0.24500  1.0000
  I   I99       1.0  0.18070  0.12256  0.58516  1.0000
  I   I100      1.0  0.17821  0.35737  0.10543  1.0000
  I   I101      1.0  0.16391  0.35548  0.42989  1.0000
  I   I102      1.0  0.16572  0.36138  0.76248  1.0000
  I   I103      1.0  0.15337  0.62961  0.16075  1.0000
  I   I104      1.0  0.18125  0.61503  0.48028  1.0000
  I   I105      1.0  0.15889  0.62689  0.83411  1.0000
  I   I106      1.0  0.12840  0.91417  0.03735  1.0000
  I   I107      1.0  0.14255  0.89651  0.38003  1.0000
  I   I108      1.0  0.12964  0.92942  0.71343  1.0000
  I   I109      1.0  0.44583  0.10431  0.04707  1.0000
  I   I110      1.0  0.45943  0.08043  0.37646  1.0000
  I   I111      1.0  0.47501  0.09207  0.70823  1.0000
  I   I112      1.0  0.39581  0.41521  0.11560  1.0000
  I   I113      1.0  0.41170  0.40054  0.46474  1.0000
  I   I114      1.0  0.39354  0.40101  0.78955  1.0000
  I   I115      1.0  0.39331  0.66419  0.05425  1.0000
  I   I116      1.0  0.38313  0.62976  0.37578  1.0000
  I   I117      1.0  0.39228  0.64732  0.70962  1.0000
  I   I118      1.0  0.46607  0.80651  0.89253  1.0000
  I   I119      1.0  0.45197  0.83010  0.19836  1.0000
  I   I120      1.0  0.46528  0.82586  0.52892  1.0000
  I   I121      1.0  0.66329  0.15585  0.04399  1.0000
  I   I122      1.0  0.67596  0.14114  0.37004  1.0000
  I   I123      1.0  0.67340  0.14264  0.72381  1.0000
  I   I124      1.0  0.62238  0.44248  0.03865  1.0000
  I   I125      1.0  0.63701  0.43083  0.35563  1.0000
  I   I126      1.0  0.63265  0.42951  0.70993  1.0000
  I   I127      1.0  0.68563  0.60150  0.90263  1.0000
  I   I128      1.0  0.68600  0.60702  0.21120  1.0000
  I   I129      1.0  0.68873  0.58140  0.56965  1.0000
  I   I130      1.0  0.69996  0.84838  0.00381  1.0000
  I   I131      1.0  0.68771  0.85268  0.35520  1.0000
  I   I132      1.0  0.69840  0.83142  0.66399  1.0000
  I   I133      1.0  0.88172  0.14310  0.97914  1.0000
  I   I134      1.0  0.89280  0.14719  0.31526  1.0000
  I   I135      1.0  0.89927  0.13496  0.63822  1.0000
  I   I136      1.0  0.91130  0.35035  0.93934  1.0000
  I   I137      1.0  0.91605  0.35719  0.25932  1.0000
  I   I138      1.0  0.92954  0.35645  0.59074  1.0000
  I   I139      1.0  0.94527  0.59075  0.04934  1.0000
  I   I140      1.0  0.94641  0.59836  0.37016  1.0000
  I   I141      1.0  0.94161  0.60983  0.71371  1.0000
  I   I142      1.0  0.88574  0.89942  0.10644  1.0000
  I   I143      1.0  0.90737  0.86240  0.44029  1.0000
  I   I144      1.0  0.90450  0.88773  0.78060  1.0000
  I   I145      1.0  0.13230  0.07753  0.03664  1.0000
  I   I146      1.0  0.14705  0.06791  0.37506  1.0000
  I   I147      1.0  0.14373  0.06806  0.70244  1.0000
  I   I148      1.0  0.11709  0.30504  0.23395  1.0000
  I   I149      1.0  0.16005  0.29211  0.55765  1.0000
  I   I150      1.0  0.15484  0.29239  0.90154  1.0000
  I   I151      1.0  0.11265  0.58539  0.28250  1.0000
  I   I152      1.0  0.13075  0.58284  0.62374  1.0000
  I   I153      1.0  0.10412  0.58982  0.95436  1.0000
  I   I154      1.0  0.11381  0.84952  0.16661  1.0000
  I   I155      1.0  0.10646  0.85879  0.50639  1.0000
  I   I156      1.0  0.12592  0.85560  0.81585  1.0000
  I   I157      1.0  0.41316  0.04440  0.16121  1.0000
  I   I158      1.0  0.42289  0.04844  0.51928  1.0000
  I   I159      1.0  0.41337  0.06308  0.83716  1.0000
  I   I160      1.0  0.37916  0.34333  0.25235  1.0000
  I   I161      1.0  0.37394  0.35192  0.57598  1.0000
  I   I162      1.0  0.36433  0.35806  0.91039  1.0000
  I   I163      1.0  0.33278  0.61517  0.15410  1.0000
  I   I164      1.0  0.33337  0.60200  0.51290  1.0000
  I   I165      1.0  0.36823  0.60872  0.83871  1.0000
  I   I166      1.0  0.38498  0.82014  0.99525  1.0000
  I   I167      1.0  0.38032  0.81841  0.33801  1.0000
  I   I168      1.0  0.41710  0.80350  0.65475  1.0000
  I   I169      1.0  0.60902  0.10960  0.18527  1.0000
  I   I170      1.0  0.62992  0.09833  0.51245  1.0000
  I   I171      1.0  0.62171  0.10054  0.85138  1.0000
  I   I172      1.0  0.58111  0.38903  0.16570  1.0000
  I   I173      1.0  0.59973  0.38729  0.48794  1.0000
  I   I174      1.0  0.58985  0.39421  0.83388  1.0000
  I   I175      1.0  0.63509  0.55032  0.04892  1.0000
  I   I176      1.0  0.63363  0.55583  0.34005  1.0000
  I   I177      1.0  0.64586  0.55634  0.69077  1.0000
  I   I178      1.0  0.62828  0.83433  0.14083  1.0000
  I   I179      1.0  0.63719  0.82189  0.45702  1.0000
  I   I180      1.0  0.64505  0.80652  0.79358  1.0000
  I   I181      1.0  0.82818  0.11352  0.10681  1.0000
  I   I182      1.0  0.84341  0.10776  0.42808  1.0000
  I   I183      1.0  0.84023  0.10120  0.76772  1.0000
  I   I184      1.0  0.86424  0.31390  0.06133  1.0000
  I   I185      1.0  0.86275  0.32583  0.39782  1.0000
  I   I186      1.0  0.87524  0.32639  0.71158  1.0000
  I   I187      1.0  0.90670  0.53910  0.17427  1.0000
  I   I188      1.0  0.90701  0.55188  0.50013  1.0000
  I   I189      1.0  0.90375  0.54808  0.84549  1.0000
  I   I190      1.0  0.85882  0.82685  0.24651  1.0000
  I   I191      1.0  0.85178  0.83833  0.57476  1.0000
  I   I192      1.0  0.85804  0.84724  0.90261  1.0000
  I   I193      1.0  0.21517  0.09685  0.07716  1.0000
  I   I194      1.0  0.23455  0.08847  0.42799  1.0000
  I   I195      1.0  0.23287  0.05082  0.78028  1.0000
  I   I196      1.0  0.22350  0.30425  0.26808  1.0000
  I   I197      1.0  0.22840  0.33098  0.61543  1.0000
  I   I198      1.0  0.22626  0.33095  0.94551  1.0000
  I   I199      1.0  0.21973  0.58784  0.32952  1.0000
  I   I200      1.0  0.21774  0.57805  0.68039  1.0000
  I   I201      1.0  0.19855  0.57778  0.02221  1.0000
  I   I202      1.0  0.20264  0.85370  0.23030  1.0000
  I   I203      1.0  0.18454  0.88797  0.53942  1.0000
  I   I204      1.0  0.19043  0.88820  0.87961  1.0000
  I   I205      1.0  0.50326  0.05840  0.21275  1.0000
  I   I206      1.0  0.52768  0.05082  0.54626  1.0000
  I   I207      1.0  0.50500  0.06766  0.88361  1.0000
  I   I208      1.0  0.45152  0.38238  0.29588  1.0000
  I   I209      1.0  0.46276  0.35995  0.65267  1.0000
  I   I210      1.0  0.45244  0.38522  0.94507  1.0000
  I   I211      1.0  0.42962  0.59994  0.22247  1.0000
  I   I212      1.0  0.43191  0.60676  0.54976  1.0000
  I   I213      1.0  0.45190  0.61931  0.89708  1.0000
  I   I214      1.0  0.50695  0.75968  0.06537  1.0000
  I   I215      1.0  0.49830  0.77288  0.37366  1.0000
  I   I216      1.0  0.52481  0.75693  0.74474  1.0000
  I   I217      1.0  0.72684  0.07692  0.22168  1.0000
  I   I218      1.0  0.73269  0.06039  0.59665  1.0000
  I   I219      1.0  0.71805  0.09636  0.92064  1.0000
  I   I220      1.0  0.67888  0.37894  0.18443  1.0000
  I   I221      1.0  0.68366  0.36445  0.58524  1.0000
  I   I222      1.0  0.69160  0.38179  0.88411  1.0000
  I   I223      1.0  0.74153  0.54328  0.06549  1.0000
  I   I224      1.0  0.72980  0.55776  0.40327  1.0000
  I   I225      1.0  0.74138  0.54677  0.73851  1.0000
  I   I226      1.0  0.73529  0.79448  0.20399  1.0000
  I   I227      1.0  0.74175  0.78526  0.49188  1.0000
  I   I228      1.0  0.73855  0.80324  0.85064  1.0000
  I   I229      1.0  0.93342  0.10482  0.15702  1.0000
  I   I230      1.0  0.94583  0.07214  0.50654  1.0000
  I   I231      1.0  0.94124  0.08164  0.81865  1.0000
  I   I232      1.0  0.97180  0.31199  0.09769  1.0000
  I   I233      1.0  0.96756  0.29562  0.45594  1.0000
  I   I234      1.0  0.97564  0.31892  0.78759  1.0000
  I   I235      1.0  0.99232  0.55123  0.21082  1.0000
  I   I236      1.0  0.00125  0.55204  0.54823  1.0000
  I   I237      1.0  0.99321  0.56027  0.90132  1.0000
  I   I238      1.0  0.96783  0.81706  0.29436  1.0000
  I   I239      1.0  0.95619  0.84451  0.63861  1.0000
  I   I240      1.0  0.94407  0.85305  0.97082  1.0000
  I   I241      1.0  0.19404  0.02993  0.17786  1.0000
  I   I242      1.0  0.20525  0.02512  0.52470  1.0000
  I   I243      1.0  0.17783  0.01871  0.87593  1.0000
  I   I244      1.0  0.18653  0.23934  0.35051  1.0000
  I   I245      1.0  0.21646  0.25021  0.70737  1.0000
  I   I246      1.0  0.22113  0.25292  0.04227  1.0000
  I   I247      1.0  0.17735  0.52672  0.40921  1.0000
  I   I248      1.0  0.16766  0.53079  0.78504  1.0000
  I   I249      1.0  0.14754  0.53736  0.11965  1.0000
  I   I250      1.0  0.16796  0.79328  0.31432  1.0000
  I   I251      1.0  0.16862  0.82320  0.65014  1.0000
  I   I252      1.0  0.18109  0.81420  0.98285  1.0000
  I   I253      1.0  0.47746  0.98026  0.28889  1.0000
  I   I254      1.0  0.49008  0.98601  0.63796  1.0000
  I   I255      1.0  0.47521  0.00346  0.97276  1.0000
  I   I256      1.0  0.43176  0.31174  0.40865  1.0000
  I   I257      1.0  0.42469  0.29743  0.72432  1.0000
  I   I258      1.0  0.44589  0.31733  0.05291  1.0000
  I   I259      1.0  0.36333  0.55151  0.29289  1.0000
  I   I260      1.0  0.39060  0.55022  0.66102  1.0000
  I   I261      1.0  0.41224  0.56040  0.99407  1.0000
  I   I262      1.0  0.40518  0.77047  0.13110  1.0000
  I   I263      1.0  0.42237  0.75540  0.48680  1.0000
  I   I264      1.0  0.44707  0.73575  0.80491  1.0000
  I   I265      1.0  0.67016  0.04462  0.33580  1.0000
  I   I266      1.0  0.66512  0.04759  0.68338  1.0000
  I   I267      1.0  0.65813  0.06474  0.02548  1.0000
  I   I268      1.0  0.64730  0.32680  0.29243  1.0000
  I   I269      1.0  0.59778  0.35265  0.65452  1.0000
  I   I270      1.0  0.63493  0.34016  0.99745  1.0000
  I   I271      1.0  0.69885  0.50862  0.19906  1.0000
  I   I272      1.0  0.69606  0.49491  0.50032  1.0000
  I   I273      1.0  0.69863  0.50573  0.84692  1.0000
  I   I274      1.0  0.66066  0.77329  0.28034  1.0000
  I   I275      1.0  0.68371  0.75062  0.60161  1.0000
  I   I276      1.0  0.68842  0.75445  0.94572  1.0000
  I   I277      1.0  0.87464  0.06170  0.26670  1.0000
  I   I278      1.0  0.86720  0.05312  0.57038  1.0000
  I   I279      1.0  0.88008  0.05849  0.92437  1.0000
  I   I280      1.0  0.92586  0.25539  0.19125  1.0000
  I   I281      1.0  0.89558  0.27477  0.53974  1.0000
  I   I282      1.0  0.93085  0.25069  0.83171  1.0000
  I   I283      1.0  0.94686  0.49892  0.31520  1.0000
  I   I284      1.0  0.96680  0.50110  0.65712  1.0000
  I   I285      1.0  0.96801  0.49432  0.97746  1.0000
  I   I286      1.0  0.90863  0.77100  0.37831  1.0000
  I   I287      1.0  0.90155  0.79012  0.71482  1.0000
  I   I288      1.0  0.90829  0.78907  0.04904  1.0000
  I   I289      1.0  0.02622  0.16129  0.01169  1.0000
  I   I290      1.0  0.03059  0.16426  0.35987  1.0000
  I   I291      1.0  0.04318  0.16203  0.68395  1.0000
  I   I292      1.0  0.02999  0.39657  0.18494  1.0000
  I   I293      1.0  0.05204  0.34078  0.55891  1.0000
  I   I294      1.0  0.04953  0.34768  0.88004  1.0000
  I   I295      1.0  0.01971  0.68317  0.29851  1.0000
  I   I296      1.0  0.04016  0.67858  0.59379  1.0000
  I   I297      1.0  0.01219  0.68568  0.92453  1.0000
  I   I298      1.0  1.00000  0.91095  0.11301  1.0000
  I   I299      1.0  0.00450  0.92124  0.46381  1.0000
  I   I300      1.0  0.01004  0.92121  0.81261  1.0000
  I   I301      1.0  0.30087  0.13505  0.12933  1.0000
  I   I302      1.0  0.32636  0.12961  0.50053  1.0000
  I   I303      1.0  0.32179  0.14877  0.79003  1.0000
  I   I304      1.0  0.27300  0.39977  0.22814  1.0000
  I   I305      1.0  0.27124  0.43900  0.56117  1.0000
  I   I306      1.0  0.25149  0.41601  0.87305  1.0000
  I   I307      1.0  0.24432  0.72563  0.14184  1.0000
  I   I308      1.0  0.24336  0.69338  0.50352  1.0000
  I   I309      1.0  0.26574  0.68525  0.85304  1.0000
  I   I310      1.0  0.32544  0.92523  0.93146  1.0000
  I   I311      1.0  0.30804  0.95522  0.36801  1.0000
  I   I312      1.0  0.34372  0.92448  0.67598  1.0000
  I   I313      1.0  0.52925  0.22726  0.17206  1.0000
  I   I314      1.0  0.54276  0.19391  0.48317  1.0000
  I   I315      1.0  0.52939  0.17401  0.81543  1.0000
  I   I316      1.0  0.48003  0.48284  0.13092  1.0000
  I   I317      1.0  0.49250  0.48109  0.46824  1.0000
  I   I318      1.0  0.49570  0.49936  0.83258  1.0000
  I   I319      1.0  0.53711  0.64105  0.99828  1.0000
  I   I320      1.0  0.54345  0.65847  0.34642  1.0000
  I   I321      1.0  0.55235  0.64248  0.66369  1.0000
  I   I322      1.0  0.55316  0.94093  0.11028  1.0000
  I   I323      1.0  0.55032  0.91377  0.43976  1.0000
  I   I324      1.0  0.55650  0.90662  0.78338  1.0000
  I   I325      1.0  0.73670  0.21596  0.06253  1.0000
  I   I326      1.0  0.75296  0.20506  0.42359  1.0000
  I   I327      1.0  0.75624  0.20354  0.75020  1.0000
  I   I328      1.0  0.76573  0.39551  0.05215  1.0000
  I   I329      1.0  0.77310  0.43090  0.35054  1.0000
  I   I330      1.0  0.78132  0.43415  0.71071  1.0000
  I   I331      1.0  0.80847  0.61434  0.15380  1.0000
  I   I332      1.0  0.80920  0.62871  0.48130  1.0000
  I   I333      1.0  0.80276  0.62133  0.81277  1.0000
  I   I334      1.0  0.75656  0.91811  0.22614  1.0000
  I   I335      1.0  0.76060  0.93199  0.54155  1.0000
  I   I336      1.0  0.76065  0.94096  0.87100  1.0000
  I   I337      1.0  0.06901  0.21744  0.91744  1.0000
  I   I338      1.0  0.07643  0.21385  0.25226  1.0000
  I   I339      1.0  0.09256  0.20909  0.59783  1.0000
  I   I340      1.0  0.08677  0.44561  0.10847  1.0000
  I   I341      1.0  0.04564  0.42763  0.44289  1.0000
  I   I342      1.0  0.05508  0.42106  0.78844  1.0000
  I   I343      1.0  0.06626  0.72526  0.17878  1.0000
  I   I344      1.0  0.09913  0.71899  0.50571  1.0000
  I   I345      1.0  0.06721  0.72711  0.83704  1.0000
  I   I346      1.0  0.02224  0.98644  0.04875  1.0000
  I   I347      1.0  0.03320  0.99367  0.38475  1.0000
  I   I348      1.0  0.02888  0.99820  0.73686  1.0000
  I   I349      1.0  0.34465  0.19871  0.07487  1.0000
  I   I350      1.0  0.37071  0.18346  0.39264  1.0000
  I   I351      1.0  0.37553  0.19490  0.70547  1.0000
  I   I352      1.0  0.28181  0.48208  0.15007  1.0000
  I   I353      1.0  0.32058  0.49472  0.47227  1.0000
  I   I354      1.0  0.28784  0.48737  0.79612  1.0000
  I   I355      1.0  0.30105  0.76356  0.05221  1.0000
  I   I356      1.0  0.28136  0.74671  0.39967  1.0000
  I   I357      1.0  0.28217  0.75011  0.72293  1.0000
  I   I358      1.0  0.42260  0.91992  0.87984  1.0000
  I   I359      1.0  0.36673  0.94172  0.22443  1.0000
  I   I360      1.0  0.41092  0.93746  0.56065  1.0000
  I   I361      1.0  0.57743  0.25453  0.04896  1.0000
  I   I362      1.0  0.59438  0.24113  0.39713  1.0000
  I   I363      1.0  0.57217  0.24025  0.73898  1.0000
  I   I364      1.0  0.53834  0.53378  0.06467  1.0000
  I   I365      1.0  0.53775  0.52905  0.38327  1.0000
  I   I366      1.0  0.55286  0.53606  0.72339  1.0000
  I   I367      1.0  0.57564  0.69024  0.90701  1.0000
  I   I368      1.0  0.60247  0.69737  0.25044  1.0000
  I   I369      1.0  0.60682  0.69264  0.57937  1.0000
  I   I370      1.0  0.63060  0.95593  0.01686  1.0000
  I   I371      1.0  0.61769  0.96146  0.37231  1.0000
  I   I372      1.0  0.62124  0.94352  0.68675  1.0000
  I   I373      1.0  0.80746  0.24739  0.98155  1.0000
  I   I374      1.0  0.81194  0.25303  0.34133  1.0000
  I   I375      1.0  0.80227  0.25090  0.65794  1.0000
  I   I376      1.0  0.80411  0.44695  0.93038  1.0000
  I   I377      1.0  0.82969  0.46750  0.24904  1.0000
  I   I378      1.0  0.85664  0.46552  0.64142  1.0000
  I   I379      1.0  0.83920  0.68004  0.06303  1.0000
  I   I380      1.0  0.84257  0.69343  0.39860  1.0000
  I   I381      1.0  0.82845  0.69564  0.75438  1.0000
  I   I382      1.0  0.78323  0.97746  0.12167  1.0000
  I   I383      1.0  0.81273  0.97467  0.44665  1.0000
  I   I384      1.0  0.81716  0.98699  0.78774  1.0000
