data_image0
_chemical_formula_structural       Ti96I384
_chemical_formula_sum              "Ti96 I384"
_cell_length_a       62.0682
_cell_length_b       61.9761
_cell_length_c       30.2024
_cell_angle_alpha    88.7757
_cell_angle_beta     88.7757
_cell_angle_gamma    62.1586

_space_group_name_H-M_alt    "P 1"
_space_group_IT_number       1

loop_
  _space_group_symop_operation_xyz
  'x, y, z'

loop_
  _atom_site_type_symbol
  _atom_site_label
  _atom_site_symmetry_multiplicity
  _atom_site_fract_x
  _atom_site_fract_y
  _atom_site_fract_z
  _atom_site_occupancy
  Ti  Ti1       1.0  0.61586  0.97427  0.65202  1.0000
  Ti  Ti2       1.0  0.40972  0.19193  0.38683  1.0000
  Ti  Ti3       1.0  0.02892  0.53318  0.10510  1.0000
  Ti  Ti4       1.0  0.47275  0.45131  0.76138  1.0000
  Ti  Ti5       1.0  0.20317  0.73670  0.07688  1.0000
  Ti  Ti6       1.0  0.52563  0.07899  0.80612  1.0000
  Ti  Ti7       1.0  0.04372  0.92322  0.53976  1.0000
  Ti  Ti8       1.0  0.18038  0.56850  0.26222  1.0000
  Ti  Ti9       1.0  0.16041  0.96055  0.86712  1.0000
  Ti  Ti10      1.0  0.05789  0.82454  0.75022  1.0000
  Ti  Ti11      1.0  0.34868  0.50674  0.11483  1.0000
  Ti  Ti12      1.0  0.15838  0.73629  0.53949  1.0000
  Ti  Ti13      1.0  0.38426  0.36656  0.33457  1.0000
  Ti  Ti14      1.0  0.09994  0.02546  0.44368  1.0000
  Ti  Ti15      1.0  0.45611  0.80953  0.01936  1.0000
  Ti  Ti16      1.0  0.97071  0.53288  0.83681  1.0000
  Ti  Ti17      1.0  0.15388  0.24212  0.22844  1.0000
  Ti  Ti18      1.0  0.74027  0.59011  0.66657  1.0000
  Ti  Ti19      1.0  0.86185  0.96564  0.35956  1.0000
  Ti  Ti20      1.0  0.32697  0.14966  0.61985  1.0000
  Ti  Ti21      1.0  0.77498  0.28343  0.20662  1.0000
  Ti  Ti22      1.0  0.60518  0.81903  0.24230  1.0000
  Ti  Ti23      1.0  0.66953  0.81435  0.02447  1.0000
  Ti  Ti24      1.0  0.24500  0.80448  0.61514  1.0000
  Ti  Ti25      1.0  0.29556  0.28558  0.73667  1.0000
  Ti  Ti26      1.0  0.99591  0.24118  0.33712  1.0000
  Ti  Ti27      1.0  0.16000  0.54153  0.80710  1.0000
  Ti  Ti28      1.0  0.66579  0.51193  0.15006  1.0000
  Ti  Ti29      1.0  0.01421  0.04271  0.14071  1.0000
  Ti  Ti30      1.0  0.91685  0.45309  0.24228  1.0000
  Ti  Ti31      1.0  0.64549  0.36680  0.54898  1.0000
  Ti  Ti32      1.0  0.74351  0.07139  0.91972  1.0000
  Ti  Ti33      1.0  0.32770  0.88212  0.27873  1.0000
  Ti  Ti34      1.0  0.63802  0.82651  0.72298  1.0000
  Ti  Ti35      1.0  0.83970  0.34167  0.97007  1.0000
  Ti  Ti36      1.0  0.09630  0.54132  0.47743  1.0000
  Ti  Ti37      1.0  0.10335  0.19467  0.90945  1.0000
  Ti  Ti38      1.0  0.42519  0.32570  0.63344  1.0000
  Ti  Ti39      1.0  0.40386  0.26910  0.15439  1.0000
  Ti  Ti40      1.0  0.71689  0.78528  0.46578  1.0000
  Ti  Ti41      1.0  0.45595  0.67680  0.45907  1.0000
  Ti  Ti42      1.0  0.85018  0.91745  0.72885  1.0000
  Ti  Ti43      1.0  0.35274  0.08115  0.95952  1.0000
  Ti  Ti44      1.0  0.81129  0.62332  0.31838  1.0000
  Ti  Ti45      1.0  0.44670  0.69281  0.77132  1.0000
  Ti  Ti46      1.0  0.20086  0.04427  0.04644  1.0000
  Ti  Ti47      1.0  0.82350  0.17534  0.00725  1.0000
  Ti  Ti48      1.0  0.41267  0.54633  0.27951  1.0000
  Ti  Ti49      1.0  0.62498  0.96944  0.53544  1.0000
  Ti  Ti50      1.0  0.75131  0.20058  0.75177  1.0000
  Ti  Ti51      1.0  0.45500  0.18638  0.45602  1.0000
  Ti  Ti52      1.0  0.43598  0.47061  0.64643  1.0000
  Ti  Ti53      1.0  0.16190  0.80068  0.10003  1.0000
  Ti  Ti54      1.0  0.47985  0.08479  0.75336  1.0000
  Ti  Ti55      1.0  0.05654  0.89369  0.46061  1.0000
  Ti  Ti56      1.0  0.19205  0.57489  0.40580  1.0000
  Ti  Ti57      1.0  0.20020  0.91792  0.77436  1.0000
  Ti  Ti58      1.0  0.29796  0.15212  0.96623  1.0000
  Ti  Ti59      1.0  0.04276  0.81119  0.87004  1.0000
  Ti  Ti60      1.0  0.18229  0.74214  0.65900  1.0000
  Ti  Ti61      1.0  0.41272  0.80267  0.95641  1.0000
  Ti  Ti62      1.0  0.31892  0.37671  0.42438  1.0000
  Ti  Ti63      1.0  0.15634  0.97617  0.36758  1.0000
  Ti  Ti64      1.0  0.80514  0.55921  0.58701  1.0000
  Ti  Ti65      1.0  0.02088  0.53999  0.80422  1.0000
  Ti  Ti66      1.0  0.50485  0.26067  0.85575  1.0000
  Ti  Ti67      1.0  0.87938  0.00707  0.39830  1.0000
  Ti  Ti68      1.0  0.29876  0.20789  0.55079  1.0000
  Ti  Ti69      1.0  0.71724  0.30297  0.28355  1.0000
  Ti  Ti70      1.0  0.64455  0.74192  0.18783  1.0000
  Ti  Ti71      1.0  0.64195  0.87159  0.04664  1.0000
  Ti  Ti72      1.0  0.91789  0.90439  0.07111  1.0000
  Ti  Ti73      1.0  0.21520  0.57748  0.75952  1.0000
  Ti  Ti74      1.0  0.25699  0.35465  0.77616  1.0000
  Ti  Ti75      1.0  0.01166  0.17806  0.28463  1.0000
  Ti  Ti76      1.0  0.88585  0.39224  0.25332  1.0000
  Ti  Ti77      1.0  0.74137  0.50641  0.19428  1.0000
  Ti  Ti78      1.0  0.98287  0.06945  0.28950  1.0000
  Ti  Ti79      1.0  0.27972  0.88613  0.24045  1.0000
  Ti  Ti80      1.0  0.72459  0.34147  0.51896  1.0000
  Ti  Ti81      1.0  0.70271  0.09477  0.01857  1.0000
  Ti  Ti82      1.0  0.66909  0.77277  0.66269  1.0000
  Ti  Ti83      1.0  0.79607  0.35960  0.91119  1.0000
  Ti  Ti84      1.0  0.13933  0.48257  0.52441  1.0000
  Ti  Ti85      1.0  0.05944  0.24287  0.92246  1.0000
  Ti  Ti86      1.0  0.46386  0.28214  0.73781  1.0000
  Ti  Ti87      1.0  0.44184  0.29775  0.10293  1.0000
  Ti  Ti88      1.0  0.77849  0.76619  0.44365  1.0000
  Ti  Ti89      1.0  0.49461  0.70230  0.50322  1.0000
  Ti  Ti90      1.0  0.80762  0.90082  0.67714  1.0000
  Ti  Ti91      1.0  0.39174  0.68449  0.68489  1.0000
  Ti  Ti92      1.0  0.87995  0.21788  0.56550  1.0000
  Ti  Ti93      1.0  0.81306  0.59460  0.20954  1.0000
  Ti  Ti94      1.0  0.41949  0.51250  0.19740  1.0000
  Ti  Ti95      1.0  0.23199  0.99692  0.12916  1.0000
  Ti  Ti96      1.0  0.81677  0.11471  0.92149  1.0000
  I   I1        1.0  0.82221  0.07425  0.95649  1.0000
  I   I2        1.0  0.47787  0.21157  0.44230  1.0000
  I   I3        1.0  0.58024  0.00139  0.59818  1.0000
  I   I4        1.0  0.14452  0.76957  0.12111  1.0000
  I   I5        1.0  0.50258  0.08172  0.89398  1.0000
  I   I6        1.0  0.49650  0.04237  0.80278  1.0000
  I   I7        1.0  0.17712  0.55838  0.47128  1.0000
  I   I8        1.0  0.17989  0.62112  0.38166  1.0000
  I   I9        1.0  0.18593  0.88330  0.76420  1.0000
  I   I10       1.0  0.08755  0.84337  0.75348  1.0000
  I   I11       1.0  0.35418  0.54668  0.10732  1.0000
  I   I12       1.0  0.24385  0.72259  0.03464  1.0000
  I   I13       1.0  0.34763  0.40682  0.37961  1.0000
  I   I14       1.0  0.19197  0.93347  0.40928  1.0000
  I   I15       1.0  0.41394  0.84552  0.99062  1.0000
  I   I16       1.0  0.97877  0.49940  0.77921  1.0000
  I   I17       1.0  0.48977  0.28254  0.93158  1.0000
  I   I18       1.0  0.75407  0.58941  0.57078  1.0000
  I   I19       1.0  0.26375  0.21861  0.60843  1.0000
  I   I20       1.0  0.36918  0.47422  0.04646  1.0000
  I   I21       1.0  0.68031  0.30770  0.24181  1.0000
  I   I22       1.0  0.60652  0.90554  0.00613  1.0000
  I   I23       1.0  0.67280  0.82431  0.10963  1.0000
  I   I24       1.0  0.64365  0.78891  0.18533  1.0000
  I   I25       1.0  0.25975  0.37980  0.84928  1.0000
  I   I26       1.0  0.97433  0.28101  0.29247  1.0000
  I   I27       1.0  0.19865  0.55928  0.83371  1.0000
  I   I28       1.0  0.72706  0.53337  0.26101  1.0000
  I   I29       1.0  0.00470  0.02706  0.32716  1.0000
  I   I30       1.0  0.90622  0.35281  0.29842  1.0000
  I   I31       1.0  0.76381  0.30690  0.50309  1.0000
  I   I32       1.0  0.66699  0.13508  0.00368  1.0000
  I   I33       1.0  0.30768  0.89651  0.19470  1.0000
  I   I34       1.0  0.82482  0.37908  0.88805  1.0000
  I   I35       1.0  0.13099  0.53931  0.54286  1.0000
  I   I36       1.0  0.59673  0.85143  0.76737  1.0000
  I   I37       1.0  0.14948  0.17288  0.90862  1.0000
  I   I38       1.0  0.42143  0.26682  0.06836  1.0000
  I   I39       1.0  0.04660  0.21325  0.87978  1.0000
  I   I40       1.0  0.49493  0.71888  0.58400  1.0000
  I   I41       1.0  0.81327  0.85384  0.67799  1.0000
  I   I42       1.0  0.80964  0.75748  0.50135  1.0000
  I   I43       1.0  0.25014  0.17464  0.95622  1.0000
  I   I44       1.0  0.78195  0.62554  0.16103  1.0000
  I   I45       1.0  0.39948  0.72048  0.72792  1.0000
  I   I46       1.0  0.21727  0.03184  0.96616  1.0000
  I   I47       1.0  0.85085  0.14332  0.94011  1.0000
  I   I48       1.0  0.45613  0.54472  0.27631  1.0000
  I   I49       1.0  0.67006  0.93928  0.50867  1.0000
  I   I50       1.0  0.40783  0.17049  0.31457  1.0000
  I   I51       1.0  0.35970  0.21754  0.42265  1.0000
  I   I52       1.0  0.46950  0.43520  0.84415  1.0000
  I   I53       1.0  0.12506  0.82539  0.05183  1.0000
  I   I54       1.0  0.46329  0.07522  0.68024  1.0000
  I   I55       1.0  0.06381  0.94158  0.59810  1.0000
  I   I56       1.0  0.21585  0.55556  0.33216  1.0000
  I   I57       1.0  0.19337  0.91311  0.87078  1.0000
  I   I58       1.0  0.07048  0.79593  0.68354  1.0000
  I   I59       1.0  0.02476  0.86448  0.71247  1.0000
  I   I60       1.0  0.16879  0.69997  0.48649  1.0000
  I   I61       1.0  0.33926  0.35522  0.33886  1.0000
  I   I62       1.0  0.31421  0.40448  0.48941  1.0000
  I   I63       1.0  0.08012  0.05325  0.51615  1.0000
  I   I64       1.0  0.97689  0.57062  0.86296  1.0000
  I   I65       1.0  0.05333  0.55538  0.82053  1.0000
  I   I66       1.0  0.53868  0.27534  0.87009  1.0000
  I   I67       1.0  0.88197  0.04881  0.37513  1.0000
  I   I68       1.0  0.36796  0.10664  0.61719  1.0000
  I   I69       1.0  0.80290  0.24743  0.16523  1.0000
  I   I70       1.0  0.66550  0.70123  0.23071  1.0000
  I   I71       1.0  0.70177  0.77970  0.97385  1.0000
  I   I72       1.0  0.88115  0.91722  0.01924  1.0000
  I   I73       1.0  0.13905  0.54436  0.88266  1.0000
  I   I74       1.0  0.01402  0.22055  0.24997  1.0000
  I   I75       1.0  0.03619  0.19155  0.35354  1.0000
  I   I76       1.0  0.70839  0.48535  0.19623  1.0000
  I   I77       1.0  0.77137  0.51141  0.14124  1.0000
  I   I78       1.0  0.01370  0.07122  0.06845  1.0000
  I   I79       1.0  0.24081  0.93204  0.23236  1.0000
  I   I80       1.0  0.68063  0.37167  0.58068  1.0000
  I   I81       1.0  0.78279  0.03369  0.89160  1.0000
  I   I82       1.0  0.65596  0.79553  0.78224  1.0000
  I   I83       1.0  0.84399  0.31060  0.90023  1.0000
  I   I84       1.0  0.06999  0.51483  0.46721  1.0000
  I   I85       1.0  0.10168  0.23832  0.96929  1.0000
  I   I86       1.0  0.41440  0.31633  0.72325  1.0000
  I   I87       1.0  0.44458  0.23700  0.18202  1.0000
  I   I88       1.0  0.67978  0.81583  0.51287  1.0000
  I   I89       1.0  0.44474  0.67733  0.37062  1.0000
  I   I90       1.0  0.82994  0.93681  0.79827  1.0000
  I   I91       1.0  0.42614  0.66425  0.75687  1.0000
  I   I92       1.0  0.89387  0.18738  0.63397  1.0000
  I   I93       1.0  0.83130  0.56505  0.14207  1.0000
  I   I94       1.0  0.41464  0.53287  0.36740  1.0000
  I   I95       1.0  0.25626  0.99339  0.20210  1.0000
  I   I96       1.0  0.84779  0.09946  0.86016  1.0000
  I   I97       1.0  0.03819  0.49093  0.06228  1.0000
  I   I98       1.0  0.64088  0.99788  0.59265  1.0000
  I   I99       1.0  0.42516  0.16394  0.46763  1.0000
  I   I100      1.0  0.42415  0.47876  0.73676  1.0000
  I   I101      1.0  0.46295  0.42314  0.68283  1.0000
  I   I102      1.0  0.22121  0.69818  0.12289  1.0000
  I   I103      1.0  0.01683  0.90941  0.59642  1.0000
  I   I104      1.0  0.01668  0.89033  0.44856  1.0000
  I   I105      1.0  0.14416  0.00596  0.89104  1.0000
  I   I106      1.0  0.16786  0.70918  0.65176  1.0000
  I   I107      1.0  0.02876  0.80696  0.78491  1.0000
  I   I108      1.0  0.20372  0.72895  0.58352  1.0000
  I   I109      1.0  0.39359  0.78742  0.02032  1.0000
  I   I110      1.0  0.40746  0.32007  0.32265  1.0000
  I   I111      1.0  0.07830  0.00213  0.40728  1.0000
  I   I112      1.0  0.81051  0.51859  0.55326  1.0000
  I   I113      1.0  0.98479  0.56022  0.73756  1.0000
  I   I114      1.0  0.11197  0.26387  0.26699  1.0000
  I   I115      1.0  0.83726  0.01756  0.34727  1.0000
  I   I116      1.0  0.91503  0.98817  0.45485  1.0000
  I   I117      1.0  0.31363  0.15869  0.52236  1.0000
  I   I118      1.0  0.62155  0.72883  0.13329  1.0000
  I   I119      1.0  0.60850  0.80982  0.33022  1.0000
  I   I120      1.0  0.93744  0.88844  0.14793  1.0000
  I   I121      1.0  0.25161  0.52979  0.76200  1.0000
  I   I122      1.0  0.30585  0.31578  0.78475  1.0000
  I   I123      1.0  0.95650  0.23608  0.35189  1.0000
  I   I124      1.0  0.91733  0.46392  0.15923  1.0000
  I   I125      1.0  0.62175  0.54838  0.12930  1.0000
  I   I126      1.0  0.99444  0.09610  0.34314  1.0000
  I   I127      1.0  0.32810  0.92423  0.30530  1.0000
  I   I128      1.0  0.64600  0.32716  0.58229  1.0000
  I   I129      1.0  0.73660  0.04358  0.99604  1.0000
  I   I130      1.0  0.07490  0.54784  0.55298  1.0000
  I   I131      1.0  0.62950  0.86954  0.68696  1.0000
  I   I132      1.0  0.76511  0.40689  0.90011  1.0000
  I   I133      1.0  0.38768  0.31783  0.12099  1.0000
  I   I134      1.0  0.42519  0.36752  0.62339  1.0000
  I   I135      1.0  0.45670  0.26442  0.65524  1.0000
  I   I136      1.0  0.88511  0.93044  0.70129  1.0000
  I   I137      1.0  0.71651  0.80747  0.39179  1.0000
  I   I138      1.0  0.41616  0.67137  0.47816  1.0000
  I   I139      1.0  0.44793  0.68556  0.85563  1.0000
  I   I140      1.0  0.89396  0.25015  0.57805  1.0000
  I   I141      1.0  0.81148  0.66673  0.33198  1.0000
  I   I142      1.0  0.43882  0.48031  0.26434  1.0000
  I   I143      1.0  0.26961  0.94941  0.12108  1.0000
  I   I144      1.0  0.84107  0.14959  0.07628  1.0000
  I   I145      1.0  0.61289  0.93649  0.48942  1.0000
  I   I146      1.0  0.41580  0.22230  0.49572  1.0000
  I   I147      1.0  0.00800  0.57254  0.05253  1.0000
  I   I148      1.0  0.39968  0.46297  0.63336  1.0000
  I   I149      1.0  0.19514  0.78689  0.03454  1.0000
  I   I150      1.0  0.52989  0.07060  0.72448  1.0000
  I   I151      1.0  0.06117  0.91070  0.38300  1.0000
  I   I152      1.0  0.15132  0.57127  0.34044  1.0000
  I   I153      1.0  0.13780  0.95955  0.79161  1.0000
  I   I154      1.0  0.28074  0.13494  0.03057  1.0000
  I   I155      1.0  0.35974  0.46260  0.15292  1.0000
  I   I156      1.0  0.14505  0.77827  0.59278  1.0000
  I   I157      1.0  0.43879  0.83568  0.09341  1.0000
  I   I158      1.0  0.18093  0.99413  0.32404  1.0000
  I   I159      1.0  0.45890  0.79633  0.92858  1.0000
  I   I160      1.0  0.80863  0.58672  0.52288  1.0000
  I   I161      1.0  0.16427  0.27821  0.23197  1.0000
  I   I162      1.0  0.72843  0.55389  0.67011  1.0000
  I   I163      1.0  0.85242  0.01687  0.47374  1.0000
  I   I164      1.0  0.26844  0.21668  0.48288  1.0000
  I   I165      1.0  0.70915  0.27519  0.34021  1.0000
  I   I166      1.0  0.61464  0.85516  0.23220  1.0000
  I   I167      1.0  0.64263  0.83722  0.95258  1.0000
  I   I168      1.0  0.19827  0.83211  0.61297  1.0000
  I   I169      1.0  0.25289  0.31575  0.69271  1.0000
  I   I170      1.0  0.32180  0.28077  0.66384  1.0000
  I   I171      1.0  0.16575  0.50045  0.77551  1.0000
  I   I172      1.0  0.88933  0.43461  0.20460  1.0000
  I   I173      1.0  0.97403  0.05004  0.21272  1.0000
  I   I174      1.0  0.96158  0.44770  0.26138  1.0000
  I   I175      1.0  0.62405  0.40753  0.50886  1.0000
  I   I176      1.0  0.68076  0.07440  0.05868  1.0000
  I   I177      1.0  0.26764  0.85289  0.20724  1.0000
  I   I178      1.0  0.68545  0.75884  0.58342  1.0000
  I   I179      1.0  0.86203  0.31042  0.03652  1.0000
  I   I180      1.0  0.18241  0.47050  0.49510  1.0000
  I   I181      1.0  0.11220  0.15657  0.85293  1.0000
  I   I182      1.0  0.44913  0.25101  0.77431  1.0000
  I   I183      1.0  0.37098  0.29017  0.22077  1.0000
  I   I184      1.0  0.74368  0.80369  0.49402  1.0000
  I   I185      1.0  0.50338  0.66346  0.43975  1.0000
  I   I186      1.0  0.76169  0.92152  0.71651  1.0000
  I   I187      1.0  0.91280  0.19691  0.49493  1.0000
  I   I188      1.0  0.83960  0.57237  0.29652  1.0000
  I   I189      1.0  0.48756  0.66105  0.73798  1.0000
  I   I190      1.0  0.20923  0.08288  0.06495  1.0000
  I   I191      1.0  0.71879  0.21696  0.68550  1.0000
  I   I192      1.0  0.40036  0.55984  0.17800  1.0000
  I   I193      1.0  0.61072  0.00648  0.48182  1.0000
  I   I194      1.0  0.76146  0.15555  0.75050  1.0000
  I   I195      1.0  0.99969  0.54586  0.17515  1.0000
  I   I196      1.0  0.51798  0.42803  0.74172  1.0000
  I   I197      1.0  0.36400  0.03808  0.98618  1.0000
  I   I198      1.0  0.47936  0.12643  0.79330  1.0000
  I   I199      1.0  0.08673  0.84857  0.44251  1.0000
  I   I200      1.0  0.23637  0.55349  0.44516  1.0000
  I   I201      1.0  0.12296  0.95954  0.91149  1.0000
  I   I202      1.0  0.01121  0.85853  0.84635  1.0000
  I   I203      1.0  0.80351  0.30270  0.20040  1.0000
  I   I204      1.0  0.15126  0.76404  0.46911  1.0000
  I   I205      1.0  0.27609  0.38334  0.40052  1.0000
  I   I206      1.0  0.13206  0.96377  0.31424  1.0000
  I   I207      1.0  0.36427  0.82861  0.92437  1.0000
  I   I208      1.0  0.92440  0.55420  0.84978  1.0000
  I   I209      1.0  0.14514  0.23778  0.14634  1.0000
  I   I210      1.0  0.69844  0.63447  0.65879  1.0000
  I   I211      1.0  0.89613  0.92984  0.39623  1.0000
  I   I212      1.0  0.29443  0.13173  0.62448  1.0000
  I   I213      1.0  0.74004  0.33293  0.24015  1.0000
  I   I214      1.0  0.60045  0.77548  0.22154  1.0000
  I   I215      1.0  0.64170  0.79451  0.05276  1.0000
  I   I216      1.0  0.26012  0.80774  0.69155  1.0000
  I   I217      1.0  0.32395  0.24705  0.78132  1.0000
  I   I218      1.0  0.97756  0.18966  0.23683  1.0000
  I   I219      1.0  0.18431  0.55371  0.73441  1.0000
  I   I220      1.0  0.64774  0.48309  0.18030  1.0000
  I   I221      1.0  0.05704  0.00777  0.16184  1.0000
  I   I222      1.0  0.89324  0.48734  0.29972  1.0000
  I   I223      1.0  0.61198  0.38409  0.61740  1.0000
  I   I224      1.0  0.69098  0.08610  0.93265  1.0000
  I   I225      1.0  0.32270  0.83961  0.23978  1.0000
  I   I226      1.0  0.71066  0.73848  0.69857  1.0000
  I   I227      1.0  0.88368  0.34005  0.97755  1.0000
  I   I228      1.0  0.13754  0.51064  0.43247  1.0000
  I   I229      1.0  0.03706  0.24390  0.99434  1.0000
  I   I230      1.0  0.44247  0.30815  0.55478  1.0000
  I   I231      1.0  0.43501  0.33856  0.07481  1.0000
  I   I232      1.0  0.69247  0.75858  0.46188  1.0000
  I   I233      1.0  0.44904  0.72137  0.45756  1.0000
  I   I234      1.0  0.85327  0.88119  0.65813  1.0000
  I   I235      1.0  0.34913  0.11947  0.00686  1.0000
  I   I236      1.0  0.76801  0.64328  0.28087  1.0000
  I   I237      1.0  0.44516  0.73617  0.78232  1.0000
  I   I238      1.0  0.25300  0.01817  0.07653  1.0000
  I   I239      1.0  0.79910  0.14034  0.00604  1.0000
  I   I240      1.0  0.40410  0.49267  0.14068  1.0000
  I   I241      1.0  0.58144  0.96231  0.68567  1.0000
  I   I242      1.0  0.40665  0.22935  0.33868  1.0000
  I   I243      1.0  0.07261  0.52632  0.12023  1.0000
  I   I244      1.0  0.47745  0.49181  0.75877  1.0000
  I   I245      1.0  0.16015  0.82844  0.16948  1.0000
  I   I246      1.0  0.56821  0.04646  0.84926  1.0000
  I   I247      1.0  0.08108  0.87293  0.55319  1.0000
  I   I248      1.0  0.20007  0.59070  0.21718  1.0000
  I   I249      1.0  0.24620  0.89166  0.78011  1.0000
  I   I250      1.0  0.06492  0.80571  0.94625  1.0000
  I   I251      1.0  0.30166  0.53242  0.11110  1.0000
  I   I252      1.0  0.21667  0.73580  0.70696  1.0000
  I   I253      1.0  0.37927  0.39006  0.26192  1.0000
  I   I254      1.0  0.13230  0.97784  0.46070  1.0000
  I   I255      1.0  0.47323  0.76426  0.04626  1.0000
  I   I256      1.0  0.02801  0.51161  0.87361  1.0000
  I   I257      1.0  0.18241  0.20234  0.26503  1.0000
  I   I258      1.0  0.84894  0.54695  0.62954  1.0000
  I   I259      1.0  0.84733  0.94604  0.30677  1.0000
  I   I260      1.0  0.29309  0.25362  0.54537  1.0000
  I   I261      1.0  0.73778  0.29782  0.14952  1.0000
  I   I262      1.0  0.56080  0.84427  0.21637  1.0000
  I   I263      1.0  0.60656  0.86882  0.09441  1.0000
  I   I264      1.0  0.26393  0.82562  0.55756  1.0000
  I   I265      1.0  0.21131  0.37683  0.77502  1.0000
  I   I266      1.0  0.04450  0.13917  0.24262  1.0000
  I   I267      1.0  0.12014  0.57284  0.76749  1.0000
  I   I268      1.0  0.67880  0.49249  0.07570  1.0000
  I   I269      1.0  0.94256  0.07782  0.32987  1.0000
  I   I270      1.0  0.88830  0.36883  0.18381  1.0000
  I   I271      1.0  0.68523  0.33452  0.48640  1.0000
  I   I272      1.0  0.75147  0.09770  0.98117  1.0000
  I   I273      1.0  0.37193  0.87189  0.26258  1.0000
  I   I274      1.0  0.68030  0.81358  0.66072  1.0000
  I   I275      1.0  0.81543  0.38026  0.01536  1.0000
  I   I276      1.0  0.06898  0.57975  0.42555  1.0000
  I   I277      1.0  0.09283  0.19345  0.99567  1.0000
  I   I278      1.0  0.47286  0.31400  0.68415  1.0000
  I   I279      1.0  0.39028  0.23571  0.12518  1.0000
  I   I280      1.0  0.76969  0.74359  0.37528  1.0000
  I   I281      1.0  0.47746  0.66037  0.54473  1.0000
  I   I282      1.0  0.87502  0.87637  0.77252  1.0000
  I   I283      1.0  0.32286  0.08791  0.89666  1.0000
  I   I284      1.0  0.82249  0.63312  0.23066  1.0000
  I   I285      1.0  0.36412  0.66356  0.70537  1.0000
  I   I286      1.0  0.15262  0.06612  0.04449  1.0000
  I   I287      1.0  0.77779  0.15259  0.88067  1.0000
  I   I288      1.0  0.37984  0.52369  0.26271  1.0000
  I   I289      1.0  0.62611  0.97936  0.73740  1.0000
  I   I290      1.0  0.79737  0.19090  0.75796  1.0000
  I   I291      1.0  0.45966  0.17182  0.36044  1.0000
  I   I292      1.0  0.42812  0.51848  0.63579  1.0000
  I   I293      1.0  0.21123  0.76341  0.14341  1.0000
  I   I294      1.0  0.53931  0.10699  0.85250  1.0000
  I   I295      1.0  0.00146  0.95655  0.51120  1.0000
  I   I296      1.0  0.13754  0.57339  0.23698  1.0000
  I   I297      1.0  0.18203  0.97187  0.80366  1.0000
  I   I298      1.0  0.29907  0.18985  0.00741  1.0000
  I   I299      1.0  0.09182  0.80065  0.82806  1.0000
  I   I300      1.0  0.14729  0.77700  0.71068  1.0000
  I   I301      1.0  0.49159  0.81874  0.00496  1.0000
  I   I302      1.0  0.33687  0.33949  0.47582  1.0000
  I   I303      1.0  0.06491  0.06090  0.39235  1.0000
  I   I304      1.0  0.78915  0.55455  0.67040  1.0000
  I   I305      1.0  0.96755  0.51342  0.91138  1.0000
  I   I306      1.0  0.45984  0.30448  0.82705  1.0000
  I   I307      1.0  0.82813  0.97564  0.42329  1.0000
  I   I308      1.0  0.31415  0.17077  0.69305  1.0000
  I   I309      1.0  0.76502  0.27887  0.30751  1.0000
  I   I310      1.0  0.67733  0.73392  0.12105  1.0000
  I   I311      1.0  0.64900  0.89525  0.10749  1.0000
  I   I312      1.0  0.94753  0.86111  0.04066  1.0000
  I   I313      1.0  0.23227  0.58038  0.67899  1.0000
  I   I314      1.0  0.25192  0.31404  0.80058  1.0000
  I   I315      1.0  0.00987  0.25828  0.40400  1.0000
  I   I316      1.0  0.84091  0.40495  0.27658  1.0000
  I   I317      1.0  0.69604  0.53490  0.15053  1.0000
  I   I318      1.0  0.02144  0.06318  0.21739  1.0000
  I   I319      1.0  0.33692  0.85355  0.35237  1.0000
  I   I320      1.0  0.71480  0.37403  0.45581  1.0000
  I   I321      1.0  0.74129  0.10404  0.86198  1.0000
  I   I322      1.0  0.61971  0.81265  0.65094  1.0000
  I   I323      1.0  0.79741  0.33329  0.98748  1.0000
  I   I324      1.0  0.15972  0.46946  0.59886  1.0000
  I   I325      1.0  0.03034  0.29317  0.91646  1.0000
  I   I326      1.0  0.51338  0.24656  0.77110  1.0000
  I   I327      1.0  0.48087  0.26438  0.06639  1.0000
  I   I328      1.0  0.75759  0.73826  0.49204  1.0000
  I   I329      1.0  0.49494  0.74215  0.47172  1.0000
  I   I330      1.0  0.80761  0.94505  0.67631  1.0000
  I   I331      1.0  0.35520  0.72505  0.64901  1.0000
  I   I332      1.0  0.39219  0.06863  0.91724  1.0000
  I   I333      1.0  0.79248  0.56776  0.24760  1.0000
  I   I334      1.0  0.45983  0.50503  0.15446  1.0000
  I   I335      1.0  0.20106  0.99728  0.07106  1.0000
  I   I336      1.0  0.84584  0.20052  0.99003  1.0000
  I   I337      1.0  0.65168  0.93422  0.63484  1.0000
  I   I338      1.0  0.73300  0.23152  0.81879  1.0000
  I   I339      1.0  0.49550  0.14656  0.47511  1.0000
  I   I340      1.0  0.46970  0.44862  0.58577  1.0000
  I   I341      1.0  0.18005  0.73798  0.00805  1.0000
  I   I342      1.0  0.43883  0.10286  0.80513  1.0000
  I   I343      1.0  0.08507  0.91604  0.48294  1.0000
  I   I344      1.0  0.20234  0.52314  0.23947  1.0000
  I   I345      1.0  0.18919  0.92684  0.69385  1.0000
  I   I346      1.0  0.32300  0.15852  0.89888  1.0000
  I   I347      1.0  0.02259  0.78254  0.90612  1.0000
  I   I348      1.0  0.11491  0.74689  0.56471  1.0000
  I   I349      1.0  0.42525  0.76013  0.90648  1.0000
  I   I350      1.0  0.41915  0.37140  0.37004  1.0000
  I   I351      1.0  0.13734  0.02500  0.38349  1.0000
  I   I352      1.0  0.75158  0.59785  0.74289  1.0000
  I   I353      1.0  0.05532  0.51678  0.74609  1.0000
  I   I354      1.0  0.51656  0.21768  0.90081  1.0000
  I   I355      1.0  0.90409  0.97634  0.33374  1.0000
  I   I356      1.0  0.34556  0.17800  0.57818  1.0000
  I   I357      1.0  0.68822  0.33350  0.34694  1.0000
  I   I358      1.0  0.25617  0.75893  0.59810  1.0000
  I   I359      1.0  0.68992  0.84651  0.00631  1.0000
  I   I360      1.0  0.92817  0.94027  0.05642  1.0000
  I   I361      1.0  0.19977  0.61973  0.78950  1.0000
  I   I362      1.0  0.27165  0.37859  0.72062  1.0000
  I   I363      1.0  0.99179  0.16658  0.35449  1.0000
  I   I364      1.0  0.91631  0.41020  0.29678  1.0000
  I   I365      1.0  0.77305  0.46209  0.20475  1.0000
  I   I366      1.0  0.01333  0.01313  0.07434  1.0000
  I   I367      1.0  0.27135  0.87591  0.32848  1.0000
  I   I368      1.0  0.74302  0.35289  0.58785  1.0000
  I   I369      1.0  0.72010  0.10269  0.09672  1.0000
  I   I370      1.0  0.64299  0.74813  0.68393  1.0000
  I   I371      1.0  0.77858  0.33706  0.86273  1.0000
  I   I372      1.0  0.13136  0.44511  0.49610  1.0000
  I   I373      1.0  0.09779  0.23104  0.84396  1.0000
  I   I374      1.0  0.38251  0.33306  0.60483  1.0000
  I   I375      1.0  0.46858  0.29334  0.17411  1.0000
  I   I376      1.0  0.78521  0.79479  0.38003  1.0000
  I   I377      1.0  0.54156  0.67251  0.52088  1.0000
  I   I378      1.0  0.78979  0.90459  0.59733  1.0000
  I   I379      1.0  0.41570  0.65362  0.62139  1.0000
  I   I380      1.0  0.83304  0.24172  0.56190  1.0000
  I   I381      1.0  0.83216  0.60337  0.39514  1.0000
  I   I382      1.0  0.38544  0.59012  0.27652  1.0000
  I   I383      1.0  0.18899  0.02221  0.17256  1.0000
  I   I384      1.0  0.78228  0.21128  0.03747  1.0000
