data_image0
_chemical_formula_structural       Ti96I384
_chemical_formula_sum              "Ti96 I384"
_cell_length_a       73.1367
_cell_length_b       73.2129
_cell_length_c       35.7602
_cell_angle_alpha    88.7757
_cell_angle_beta     88.7757
_cell_angle_gamma    62.1586

_space_group_name_H-M_alt    "P 1"
_space_group_IT_number       1

loop_
  _space_group_symop_operation_xyz
  'x, y, z'

loop_
  _atom_site_type_symbol
  _atom_site_label
  _atom_site_symmetry_multiplicity
  _atom_site_fract_x
  _atom_site_fract_y
  _atom_site_fract_z
  _atom_site_occupancy
  Ti  Ti1       1.0  0.64480  0.42257  0.81858  1.0000
  Ti  Ti2       1.0  0.33345  0.81850  0.28608  1.0000
  Ti  Ti3       1.0  0.31552  0.04622  0.99005  1.0000
  Ti  Ti4       1.0  0.13324  0.27531  0.00799  1.0000
  Ti  Ti5       1.0  0.52719  0.69491  0.41910  1.0000
  Ti  Ti6       1.0  0.39875  0.27350  0.34154  1.0000
  Ti  Ti7       1.0  0.55036  0.78927  0.06701  1.0000
  Ti  Ti8       1.0  0.22396  0.52999  0.78773  1.0000
  Ti  Ti9       1.0  0.39289  0.27190  0.81925  1.0000
  Ti  Ti10      1.0  0.66474  0.60255  0.07129  1.0000
  Ti  Ti11      1.0  0.19151  0.16030  0.03192  1.0000
  Ti  Ti12      1.0  0.86608  0.16167  0.98629  1.0000
  Ti  Ti13      1.0  0.76852  0.77516  0.48365  1.0000
  Ti  Ti14      1.0  0.09782  0.27200  0.91236  1.0000
  Ti  Ti15      1.0  0.75691  0.63688  0.57756  1.0000
  Ti  Ti16      1.0  0.27822  0.43367  0.27370  1.0000
  Ti  Ti17      1.0  0.05990  0.18822  0.14437  1.0000
  Ti  Ti18      1.0  0.23116  0.28445  0.88021  1.0000
  Ti  Ti19      1.0  0.03348  0.86304  0.31000  1.0000
  Ti  Ti20      1.0  0.30156  0.78201  0.49128  1.0000
  Ti  Ti21      1.0  0.17217  0.58005  0.73622  1.0000
  Ti  Ti22      1.0  0.04869  0.15812  0.39182  1.0000
  Ti  Ti23      1.0  0.16636  0.99866  0.33559  1.0000
  Ti  Ti24      1.0  0.80207  0.09039  0.08781  1.0000
  Ti  Ti25      1.0  0.58904  0.48150  0.28654  1.0000
  Ti  Ti26      1.0  0.56055  0.93624  0.75952  1.0000
  Ti  Ti27      1.0  0.72403  0.33690  0.25314  1.0000
  Ti  Ti28      1.0  0.29051  0.04494  0.31994  1.0000
  Ti  Ti29      1.0  0.30340  0.79892  0.08193  1.0000
  Ti  Ti30      1.0  0.33601  0.95677  0.37935  1.0000
  Ti  Ti31      1.0  0.37309  0.88632  0.58640  1.0000
  Ti  Ti32      1.0  0.38460  0.86057  0.90293  1.0000
  Ti  Ti33      1.0  0.35670  0.55601  0.97288  1.0000
  Ti  Ti34      1.0  0.73252  0.55419  0.24972  1.0000
  Ti  Ti35      1.0  0.12544  0.54277  0.54290  1.0000
  Ti  Ti36      1.0  0.78850  0.15856  0.17515  1.0000
  Ti  Ti37      1.0  0.02238  0.03681  0.74879  1.0000
  Ti  Ti38      1.0  0.62646  0.94021  0.32170  1.0000
  Ti  Ti39      1.0  0.75450  0.78707  0.96281  1.0000
  Ti  Ti40      1.0  0.63598  0.73245  0.60541  1.0000
  Ti  Ti41      1.0  0.68724  0.46285  0.00828  1.0000
  Ti  Ti42      1.0  0.93886  0.53095  0.92438  1.0000
  Ti  Ti43      1.0  0.86243  0.98508  0.78896  1.0000
  Ti  Ti44      1.0  0.67801  0.40723  0.04547  1.0000
  Ti  Ti45      1.0  0.14619  0.19554  0.49151  1.0000
  Ti  Ti46      1.0  0.35965  0.99584  0.98961  1.0000
  Ti  Ti47      1.0  0.25957  0.90658  0.93306  1.0000
  Ti  Ti48      1.0  0.05371  0.06833  0.04379  1.0000
  Ti  Ti49      1.0  0.73645  0.89954  0.39355  1.0000
  Ti  Ti50      1.0  0.97035  0.35705  0.25147  1.0000
  Ti  Ti51      1.0  0.28814  0.86227  0.25970  1.0000
  Ti  Ti52      1.0  0.83186  0.49485  0.61359  1.0000
  Ti  Ti53      1.0  0.82187  0.77082  0.06334  1.0000
  Ti  Ti54      1.0  0.69758  0.13883  0.45055  1.0000
  Ti  Ti55      1.0  0.59986  0.75051  0.02678  1.0000
  Ti  Ti56      1.0  0.10427  0.89752  0.68739  1.0000
  Ti  Ti57      1.0  0.39085  0.25514  0.90264  1.0000
  Ti  Ti58      1.0  0.36808  0.54760  0.64009  1.0000
  Ti  Ti59      1.0  0.49081  0.17050  0.70767  1.0000
  Ti  Ti60      1.0  0.88935  0.17736  0.05604  1.0000
  Ti  Ti61      1.0  0.74551  0.63424  0.46714  1.0000
  Ti  Ti62      1.0  0.72252  0.76713  0.49242  1.0000
  Ti  Ti63      1.0  0.14908  0.64755  0.05390  1.0000
  Ti  Ti64      1.0  0.19157  0.32258  0.93414  1.0000
  Ti  Ti65      1.0  0.02636  0.74994  0.40237  1.0000
  Ti  Ti66      1.0  0.50799  0.36089  0.03242  1.0000
  Ti  Ti67      1.0  0.89525  0.53364  0.41258  1.0000
  Ti  Ti68      1.0  0.96619  0.88974  0.33797  1.0000
  Ti  Ti69      1.0  0.58519  0.87301  0.49079  1.0000
  Ti  Ti70      1.0  0.89065  0.49916  0.45862  1.0000
  Ti  Ti71      1.0  0.12991  0.00915  0.42387  1.0000
  Ti  Ti72      1.0  0.23044  0.95408  0.94360  1.0000
  Ti  Ti73      1.0  0.73405  0.38154  0.28184  1.0000
  Ti  Ti74      1.0  0.56502  0.44479  0.28680  1.0000
  Ti  Ti75      1.0  0.43660  0.09912  0.98842  1.0000
  Ti  Ti76      1.0  0.29368  0.07861  0.25490  1.0000
  Ti  Ti77      1.0  0.00389  0.83934  0.72629  1.0000
  Ti  Ti78      1.0  0.27299  0.76493  0.09992  1.0000
  Ti  Ti79      1.0  0.73393  0.06207  0.95997  1.0000
  Ti  Ti80      1.0  0.09449  0.34231  0.22024  1.0000
  Ti  Ti81      1.0  0.36690  0.84829  0.80708  1.0000
  Ti  Ti82      1.0  0.85034  0.29426  0.27162  1.0000
  Ti  Ti83      1.0  0.07115  0.54622  0.46679  1.0000
  Ti  Ti84      1.0  0.73507  0.20735  0.14460  1.0000
  Ti  Ti85      1.0  0.02901  0.99739  0.76947  1.0000
  Ti  Ti86      1.0  0.61152  0.33788  0.11343  1.0000
  Ti  Ti87      1.0  0.17254  0.22597  0.46954  1.0000
  Ti  Ti88      1.0  0.86610  0.49856  0.05362  1.0000
  Ti  Ti89      1.0  0.45134  0.40629  0.20855  1.0000
  Ti  Ti90      1.0  0.96745  0.50440  0.02167  1.0000
  Ti  Ti91      1.0  0.20819  0.66729  0.24451  1.0000
  Ti  Ti92      1.0  0.47066  0.76310  0.28483  1.0000
  Ti  Ti93      1.0  0.92132  0.14466  0.18526  1.0000
  Ti  Ti94      1.0  0.11337  0.00298  0.06477  1.0000
  Ti  Ti95      1.0  0.17301  0.46170  0.91635  1.0000
  Ti  Ti96      1.0  0.00325  0.24630  0.62330  1.0000
  I   I1        1.0  0.24944  0.96261  0.00749  1.0000
  I   I2        1.0  0.28184  0.88492  0.19808  1.0000
  I   I3        1.0  0.70649  0.89342  0.39649  1.0000
  I   I4        1.0  0.86087  0.75019  0.04412  1.0000
  I   I5        1.0  0.37189  0.28947  0.39743  1.0000
  I   I6        1.0  0.68611  0.12339  0.39645  1.0000
  I   I7        1.0  0.23743  0.51455  0.85725  1.0000
  I   I8        1.0  0.10681  0.93053  0.70868  1.0000
  I   I9        1.0  0.38284  0.29548  0.88848  1.0000
  I   I10       1.0  0.68116  0.55792  0.06009  1.0000
  I   I11       1.0  0.17242  0.17565  0.09516  1.0000
  I   I12       1.0  0.54193  0.70553  0.36079  1.0000
  I   I13       1.0  0.80825  0.75211  0.46303  1.0000
  I   I14       1.0  0.11932  0.64646  0.09468  1.0000
  I   I15       1.0  0.78707  0.63379  0.61269  1.0000
  I   I16       1.0  0.66755  0.60056  0.99740  1.0000
  I   I17       1.0  0.50747  0.38052  0.09570  1.0000
  I   I18       1.0  0.23537  0.26080  0.82483  1.0000
  I   I19       1.0  0.26624  0.81328  0.51652  1.0000
  I   I20       1.0  0.15954  0.17584  0.99259  1.0000
  I   I21       1.0  0.26327  0.51333  0.77817  1.0000
  I   I22       1.0  0.15412  0.02897  0.28925  1.0000
  I   I23       1.0  0.16674  0.97486  0.41086  1.0000
  I   I24       1.0  0.86042  0.54176  0.43961  1.0000
  I   I25       1.0  0.57477  0.51949  0.31603  1.0000
  I   I26       1.0  0.45640  0.06004  0.00829  1.0000
  I   I27       1.0  0.75356  0.33427  0.20317  1.0000
  I   I28       1.0  0.30399  0.00931  0.30336  1.0000
  I   I29       1.0  0.26174  0.73664  0.07669  1.0000
  I   I30       1.0  0.37282  0.94551  0.35275  1.0000
  I   I31       1.0  0.07923  0.37290  0.16883  1.0000
  I   I32       1.0  0.33171  0.87550  0.77832  1.0000
  I   I33       1.0  0.74925  0.04810  0.89168  1.0000
  I   I34       1.0  0.08794  0.56773  0.50808  1.0000
  I   I35       1.0  0.76904  0.18113  0.09751  1.0000
  I   I36       1.0  0.71591  0.56613  0.18379  1.0000
  I   I37       1.0  0.03391  0.06279  0.72145  1.0000
  I   I38       1.0  0.74502  0.82701  0.96240  1.0000
  I   I39       1.0  0.03654  0.00585  0.68567  1.0000
  I   I40       1.0  0.65656  0.45130  0.03689  1.0000
  I   I41       1.0  0.97159  0.49109  0.94134  1.0000
  I   I42       1.0  0.67497  0.72327  0.57970  1.0000
  I   I43       1.0  0.40789  0.52604  0.62041  1.0000
  I   I44       1.0  0.66830  0.40652  0.11684  1.0000
  I   I45       1.0  0.14928  0.26212  0.45423  1.0000
  I   I46       1.0  0.19259  0.45413  0.97729  1.0000
  I   I47       1.0  0.23056  0.93361  0.88064  1.0000
  I   I48       1.0  0.06280  0.08178  0.97987  1.0000
  I   I49       1.0  0.74730  0.90452  0.46705  1.0000
  I   I50       1.0  0.31127  0.80417  0.32405  1.0000
  I   I51       1.0  0.35393  0.81723  0.35192  1.0000
  I   I52       1.0  0.12907  0.34214  0.22535  1.0000
  I   I53       1.0  0.81466  0.77176  0.13141  1.0000
  I   I54       1.0  0.69671  0.17000  0.41921  1.0000
  I   I55       1.0  0.59329  0.77710  0.08350  1.0000
  I   I56       1.0  0.21950  0.55983  0.73682  1.0000
  I   I57       1.0  0.15950  0.46181  0.84616  1.0000
  I   I58       1.0  0.62834  0.61244  0.09091  1.0000
  I   I59       1.0  0.47425  0.19436  0.65252  1.0000
  I   I60       1.0  0.87330  0.15898  0.91861  1.0000
  I   I61       1.0  0.72459  0.73169  0.47048  1.0000
  I   I62       1.0  0.69077  0.77041  0.53179  1.0000
  I   I63       1.0  0.14409  0.64787  0.97821  1.0000
  I   I64       1.0  0.26882  0.42678  0.20310  1.0000
  I   I65       1.0  0.05537  0.73764  0.45593  1.0000
  I   I66       1.0  0.52081  0.32257  0.05905  1.0000
  I   I67       1.0  0.05962  0.88042  0.30772  1.0000
  I   I68       1.0  0.29431  0.76088  0.44477  1.0000
  I   I69       1.0  0.57795  0.90583  0.45053  1.0000
  I   I70       1.0  0.87055  0.50604  0.52564  1.0000
  I   I71       1.0  0.12978  0.01505  0.49764  1.0000
  I   I72       1.0  0.19195  0.95681  0.93768  1.0000
  I   I73       1.0  0.73079  0.34504  0.32053  1.0000
  I   I74       1.0  0.55567  0.97299  0.73701  1.0000
  I   I75       1.0  0.57825  0.92522  0.82184  1.0000
  I   I76       1.0  0.02666  0.82771  0.66201  1.0000
  I   I77       1.0  0.02211  0.82339  0.79732  1.0000
  I   I78       1.0  0.67924  0.41590  0.77588  1.0000
  I   I79       1.0  0.37094  0.57951  0.00113  1.0000
  I   I80       1.0  0.38640  0.84851  0.55724  1.0000
  I   I81       1.0  0.38741  0.83473  0.74593  1.0000
  I   I82       1.0  0.82915  0.30074  0.21186  1.0000
  I   I83       1.0  0.16616  0.51753  0.54561  1.0000
  I   I84       1.0  0.75150  0.16069  0.17339  1.0000
  I   I85       1.0  0.98505  0.06169  0.74408  1.0000
  I   I86       1.0  0.47066  0.37944  0.00424  1.0000
  I   I87       1.0  0.72585  0.79692  0.91147  1.0000
  I   I88       1.0  0.60646  0.76872  0.58539  1.0000
  I   I89       1.0  0.71009  0.41906  0.04085  1.0000
  I   I90       1.0  0.96063  0.51893  0.09070  1.0000
  I   I91       1.0  0.22282  0.66614  0.31339  1.0000
  I   I92       1.0  0.48893  0.77855  0.32379  1.0000
  I   I93       1.0  0.70922  0.37028  0.03165  1.0000
  I   I94       1.0  0.10228  0.97646  0.04054  1.0000
  I   I95       1.0  0.32061  0.00345  0.00960  1.0000
  I   I96       1.0  0.97698  0.27734  0.58729  1.0000
  I   I97       1.0  0.33788  0.05012  0.03956  1.0000
  I   I98       1.0  0.63057  0.46100  0.78949  1.0000
  I   I99       1.0  0.25492  0.85704  0.27534  1.0000
  I   I100      1.0  0.06377  0.26938  0.91490  1.0000
  I   I101      1.0  0.88298  0.46129  0.08639  1.0000
  I   I102      1.0  0.55765  0.68575  0.46917  1.0000
  I   I103      1.0  0.56214  0.79338  0.99548  1.0000
  I   I104      1.0  0.61340  0.71564  0.06679  1.0000
  I   I105      1.0  0.40651  0.23865  0.77669  1.0000
  I   I106      1.0  0.87915  0.19159  0.98336  1.0000
  I   I107      1.0  0.68128  0.62459  0.10716  1.0000
  I   I108      1.0  0.85140  0.17893  0.06421  1.0000
  I   I109      1.0  0.78339  0.61117  0.43202  1.0000
  I   I110      1.0  0.72078  0.79041  0.43130  1.0000
  I   I111      1.0  0.18535  0.61744  0.06677  1.0000
  I   I112      1.0  0.23448  0.30762  0.94445  1.0000
  I   I113      1.0  0.03946  0.76573  0.35139  1.0000
  I   I114      1.0  0.05497  0.15482  0.16020  1.0000
  I   I115      1.0  0.88659  0.54487  0.34086  1.0000
  I   I116      1.0  0.92849  0.47361  0.50383  1.0000
  I   I117      1.0  0.95170  0.87214  0.38702  1.0000
  I   I118      1.0  0.01975  0.17104  0.34690  1.0000
  I   I119      1.0  0.90997  0.52152  0.48766  1.0000
  I   I120      1.0  0.26265  0.90178  0.00563  1.0000
  I   I121      1.0  0.71730  0.40759  0.33812  1.0000
  I   I122      1.0  0.62623  0.47350  0.28213  1.0000
  I   I123      1.0  0.43897  0.09688  0.91553  1.0000
  I   I124      1.0  0.32826  0.93869  0.32224  1.0000
  I   I125      1.0  0.31491  0.04660  0.37710  1.0000
  I   I126      1.0  0.31272  0.79835  0.99863  1.0000
  I   I127      1.0  0.31938  0.57080  0.99905  1.0000
  I   I128      1.0  0.11664  0.28184  0.07313  1.0000
  I   I129      1.0  0.34521  0.86619  0.87959  1.0000
  I   I130      1.0  0.84098  0.07516  0.07732  1.0000
  I   I131      1.0  0.87239  0.30495  0.22060  1.0000
  I   I132      1.0  0.11692  0.52274  0.59039  1.0000
  I   I133      1.0  0.73538  0.78441  0.02574  1.0000
  I   I134      1.0  0.64434  0.95795  0.27411  1.0000
  I   I135      1.0  0.53578  0.35822  0.98523  1.0000
  I   I136      1.0  0.00514  0.49146  0.03642  1.0000
  I   I137      1.0  0.80243  0.48954  0.64424  1.0000
  I   I138      1.0  0.47344  0.36888  0.21768  1.0000
  I   I139      1.0  0.21443  0.68155  0.18236  1.0000
  I   I140      1.0  0.45907  0.78806  0.23155  1.0000
  I   I141      1.0  0.92648  0.10974  0.20960  1.0000
  I   I142      1.0  0.06939  0.03220  0.09209  1.0000
  I   I143      1.0  0.32332  0.02518  0.92373  1.0000
  I   I144      1.0  0.00031  0.21555  0.59327  1.0000
  I   I145      1.0  0.61783  0.42072  0.86470  1.0000
  I   I146      1.0  0.33344  0.84836  0.24420  1.0000
  I   I147      1.0  0.31313  0.07799  0.94434  1.0000
  I   I148      1.0  0.86697  0.47135  0.65501  1.0000
  I   I149      1.0  0.53118  0.65777  0.40472  1.0000
  I   I150      1.0  0.43518  0.27712  0.35817  1.0000
  I   I151      1.0  0.63678  0.74550  0.01771  1.0000
  I   I152      1.0  0.16933  0.59156  0.66672  1.0000
  I   I153      1.0  0.37658  0.27025  0.97249  1.0000
  I   I154      1.0  0.88583  0.94714  0.81191  1.0000
  I   I155      1.0  0.20854  0.12660  0.98125  1.0000
  I   I156      1.0  0.89880  0.12909  0.00468  1.0000
  I   I157      1.0  0.72970  0.66903  0.61022  1.0000
  I   I158      1.0  0.15153  0.68041  0.08005  1.0000
  I   I159      1.0  0.72623  0.66302  0.41892  1.0000
  I   I160      1.0  0.17255  0.31880  0.99399  1.0000
  I   I161      1.0  0.02648  0.21697  0.11110  1.0000
  I   I162      1.0  0.25698  0.29375  0.85348  1.0000
  I   I163      1.0  0.00315  0.84730  0.33498  1.0000
  I   I164      1.0  0.95724  0.87828  0.26868  1.0000
  I   I165      1.0  0.21594  0.49985  0.78667  1.0000
  I   I166      1.0  0.03699  0.18195  0.45287  1.0000
  I   I167      1.0  0.12762  0.00360  0.34303  1.0000
  I   I168      1.0  0.79776  0.08362  0.16098  1.0000
  I   I169      1.0  0.57753  0.43210  0.22117  1.0000
  I   I170      1.0  0.57985  0.40552  0.31244  1.0000
  I   I171      1.0  0.70451  0.37957  0.23169  1.0000
  I   I172      1.0  0.26342  0.05178  0.37096  1.0000
  I   I173      1.0  0.27245  0.80395  0.13475  1.0000
  I   I174      1.0  0.33753  0.93077  0.43213  1.0000
  I   I175      1.0  0.40018  0.89768  0.56613  1.0000
  I   I176      1.0  0.38445  0.87830  0.83662  1.0000
  I   I177      1.0  0.73771  0.06951  0.03439  1.0000
  I   I178      1.0  0.81408  0.29832  0.31181  1.0000
  I   I179      1.0  0.03370  0.55730  0.48995  1.0000
  I   I180      1.0  0.72865  0.24081  0.10553  1.0000
  I   I181      1.0  0.02358  0.96955  0.80762  1.0000
  I   I182      1.0  0.62328  0.30493  0.06210  1.0000
  I   I183      1.0  0.14777  0.16596  0.44966  1.0000
  I   I184      1.0  0.88844  0.51038  0.01134  1.0000
  I   I185      1.0  0.47129  0.43053  0.21315  1.0000
  I   I186      1.0  0.91091  0.57094  0.91864  1.0000
  I   I187      1.0  0.49155  0.72449  0.26109  1.0000
  I   I188      1.0  0.65334  0.40060  0.99764  1.0000
  I   I189      1.0  0.13735  0.18716  0.55675  1.0000
  I   I190      1.0  0.35677  0.96854  0.94838  1.0000
  I   I191      1.0  0.99308  0.36087  0.30207  1.0000
  I   I192      1.0  0.14883  0.99064  0.02674  1.0000
  I   I193      1.0  0.33470  0.77434  0.12472  1.0000
  I   I194      1.0  0.93560  0.38440  0.23275  1.0000
  I   I195      1.0  0.27986  0.06430  0.01788  1.0000
  I   I196      1.0  0.11662  0.31255  0.98151  1.0000
  I   I197      1.0  0.37007  0.54831  0.71013  1.0000
  I   I198      1.0  0.41095  0.23425  0.32775  1.0000
  I   I199      1.0  0.59132  0.73452  0.96187  1.0000
  I   I200      1.0  0.13213  0.87424  0.73419  1.0000
  I   I201      1.0  0.36549  0.29886  0.77611  1.0000
  I   I202      1.0  0.46083  0.16014  0.72615  1.0000
  I   I203      1.0  0.55110  0.87093  0.48825  1.0000
  I   I204      1.0  0.93264  0.15801  0.03665  1.0000
  I   I205      1.0  0.76203  0.74771  0.43767  1.0000
  I   I206      1.0  0.10038  0.26775  0.84335  1.0000
  I   I207      1.0  0.77385  0.59607  0.54979  1.0000
  I   I208      1.0  0.31686  0.40886  0.28350  1.0000
  I   I209      1.0  0.07247  0.17107  0.07967  1.0000
  I   I210      1.0  0.70351  0.09974  0.94633  1.0000
  I   I211      1.0  0.90618  0.56593  0.40573  1.0000
  I   I212      1.0  0.32685  0.75189  0.54313  1.0000
  I   I213      1.0  0.59809  0.85179  0.55131  1.0000
  I   I214      1.0  0.04768  0.12370  0.40322  1.0000
  I   I215      1.0  0.17006  0.97160  0.28221  1.0000
  I   I216      1.0  0.76727  0.12161  0.05911  1.0000
  I   I217      1.0  0.58035  0.49188  0.21263  1.0000
  I   I218      1.0  0.46249  0.11270  0.99934  1.0000
  I   I219      1.0  0.73702  0.29632  0.26756  1.0000
  I   I220      1.0  0.98023  0.82057  0.72052  1.0000
  I   I221      1.0  0.29515  0.76920  0.04851  1.0000
  I   I222      1.0  0.33002  0.04542  0.26377  1.0000
  I   I223      1.0  0.35045  0.92053  0.63127  1.0000
  I   I224      1.0  0.42166  0.84054  0.93831  1.0000
  I   I225      1.0  0.35932  0.55581  0.89652  1.0000
  I   I226      1.0  0.83942  0.33586  0.28187  1.0000
  I   I227      1.0  0.11926  0.57927  0.56637  1.0000
  I   I228      1.0  0.76166  0.20101  0.20472  1.0000
  I   I229      1.0  0.07894  0.20340  0.18605  1.0000
  I   I230      1.0  0.60136  0.97759  0.34699  1.0000
  I   I231      1.0  0.78433  0.76744  0.91690  1.0000
  I   I232      1.0  0.07504  0.31285  0.90698  1.0000
  I   I233      1.0  0.68819  0.47002  0.93442  1.0000
  I   I234      1.0  0.91579  0.51504  0.89700  1.0000
  I   I235      1.0  0.83756  0.99663  0.84981  1.0000
  I   I236      1.0  0.93933  0.16004  0.13081  1.0000
  I   I237      1.0  0.16866  0.68041  0.26341  1.0000
  I   I238      1.0  0.13639  0.48178  0.95160  1.0000
  I   I239      1.0  0.02609  0.26590  0.61454  1.0000
  I   I240      1.0  0.04748  0.09900  0.09491  1.0000
  I   I241      1.0  0.62164  0.42083  0.75530  1.0000
  I   I242      1.0  0.36803  0.78476  0.26362  1.0000
  I   I243      1.0  0.38127  0.00509  0.94631  1.0000
  I   I244      1.0  0.83996  0.52456  0.09998  1.0000
  I   I245      1.0  0.81821  0.80872  0.04601  1.0000
  I   I246      1.0  0.37535  0.29855  0.28545  1.0000
  I   I247      1.0  0.52810  0.82926  0.08040  1.0000
  I   I248      1.0  0.17365  0.55618  0.80603  1.0000
  I   I249      1.0  0.36128  0.25993  0.85278  1.0000
  I   I250      1.0  0.52625  0.13919  0.69359  1.0000
  I   I251      1.0  0.21665  0.17352  0.00042  1.0000
  I   I252      1.0  0.84266  0.14302  0.98573  1.0000
  I   I253      1.0  0.78423  0.78131  0.55213  1.0000
  I   I254      1.0  0.13904  0.26245  0.92722  1.0000
  I   I255      1.0  0.76857  0.65413  0.51348  1.0000
  I   I256      1.0  0.99102  0.77740  0.42306  1.0000
  I   I257      1.0  0.06719  0.99180  0.77266  1.0000
  I   I258      1.0  0.17974  0.36405  0.94602  1.0000
  I   I259      1.0  0.92496  0.49580  0.39376  1.0000
  I   I260      1.0  0.00094  0.89447  0.35556  1.0000
  I   I261      1.0  0.15119  0.61890  0.75477  1.0000
  I   I262      1.0  0.08487  0.15050  0.37101  1.0000
  I   I263      1.0  0.12224  0.04239  0.38787  1.0000
  I   I264      1.0  0.79957  0.12592  0.12612  1.0000
  I   I265      1.0  0.54699  0.48579  0.30237  1.0000
  I   I266      1.0  0.58082  0.90758  0.71200  1.0000
  I   I267      1.0  0.77415  0.36174  0.25574  1.0000
  I   I268      1.0  0.26208  0.07328  0.27187  1.0000
  I   I269      1.0  0.29470  0.73662  0.14992  1.0000
  I   I270      1.0  0.31052  0.10672  0.26189  1.0000
  I   I271      1.0  0.38661  0.87716  0.65822  1.0000
  I   I272      1.0  0.40328  0.82043  0.85001  1.0000
  I   I273      1.0  0.38049  0.51873  0.00997  1.0000
  I   I274      1.0  0.77048  0.52998  0.22918  1.0000
  I   I275      1.0  0.11172  0.51270  0.49620  1.0000
  I   I276      1.0  0.70007  0.21705  0.17876  1.0000
  I   I277      1.0  0.88061  0.28896  0.32645  1.0000
  I   I278      1.0  0.65357  0.92387  0.36777  1.0000
  I   I279      1.0  0.18575  0.17785  0.51019  1.0000
  I   I280      1.0  0.83940  0.47216  0.55157  1.0000
  I   I281      1.0  0.65850  0.49984  0.01678  1.0000
  I   I282      1.0  0.92972  0.53718  0.99689  1.0000
  I   I283      1.0  0.88277  0.00552  0.79992  1.0000
  I   I284      1.0  0.89519  0.16284  0.24403  1.0000
  I   I285      1.0  0.13414  0.22271  0.43376  1.0000
  I   I286      1.0  0.19341  0.41946  0.90767  1.0000
  I   I287      1.0  0.22409  0.99037  0.91145  1.0000
  I   I288      1.0  0.02935  0.05405  0.03068  1.0000
  I   I289      1.0  0.73778  0.92914  0.35492  1.0000
  I   I290      1.0  0.98819  0.34342  0.19063  1.0000
  I   I291      1.0  0.30809  0.82895  0.21676  1.0000
  I   I292      1.0  0.81354  0.53527  0.60106  1.0000
  I   I293      1.0  0.78862  0.78305  0.01783  1.0000
  I   I294      1.0  0.73685  0.10947  0.44944  1.0000
  I   I295      1.0  0.52407  0.77737  0.02509  1.0000
  I   I296      1.0  0.07435  0.89160  0.72570  1.0000
  I   I297      1.0  0.42899  0.23723  0.87845  1.0000
  I   I298      1.0  0.33960  0.53766  0.61515  1.0000
  I   I299      1.0  0.26790  0.47203  0.25976  1.0000
  I   I300      1.0  0.96221  0.13321  0.22200  1.0000
  I   I301      1.0  0.73064  0.60783  0.45147  1.0000
  I   I302      1.0  0.76066  0.81118  0.45172  1.0000
  I   I303      1.0  0.62586  0.70687  0.58151  1.0000
  I   I304      1.0  0.19683  0.32185  0.85720  1.0000
  I   I305      1.0  0.25043  0.43486  0.32735  1.0000
  I   I306      1.0  0.60493  0.37520  0.11322  1.0000
  I   I307      1.0  0.02244  0.87319  0.23875  1.0000
  I   I308      1.0  0.31597  0.80100  0.44964  1.0000
  I   I309      1.0  0.17843  0.54093  0.71748  1.0000
  I   I310      1.0  0.84901  0.97793  0.72977  1.0000
  I   I311      1.0  0.20051  0.98882  0.36425  1.0000
  I   I312      1.0  0.27673  0.93245  0.92590  1.0000
  I   I313      1.0  0.72792  0.40899  0.23287  1.0000
  I   I314      1.0  0.59754  0.44880  0.33547  1.0000
  I   I315      1.0  0.39999  0.11365  0.01988  1.0000
  I   I316      1.0  0.28226  0.09088  0.33224  1.0000
  I   I317      1.0  0.29184  0.08271  0.18173  1.0000
  I   I318      1.0  0.23345  0.78769  0.12849  1.0000
  I   I319      1.0  0.70975  0.04353  0.95915  1.0000
  I   I320      1.0  0.17296  0.26204  0.01914  1.0000
  I   I321      1.0  0.37752  0.89498  0.94733  1.0000
  I   I322      1.0  0.72728  0.52311  0.27820  1.0000
  I   I323      1.0  0.07727  0.51854  0.41081  1.0000
  I   I324      1.0  0.82835  0.14997  0.16002  1.0000
  I   I325      1.0  0.99266  0.00792  0.74028  1.0000
  I   I326      1.0  0.60025  0.32843  0.17275  1.0000
  I   I327      1.0  0.19367  0.20624  0.41645  1.0000
  I   I328      1.0  0.63834  0.72967  0.67479  1.0000
  I   I329      1.0  0.42343  0.41014  0.25507  1.0000
  I   I330      1.0  0.96261  0.47279  0.04599  1.0000
  I   I331      1.0  0.19978  0.22402  0.51786  1.0000
  I   I332      1.0  0.35552  0.58715  0.63121  1.0000
  I   I333      1.0  0.72245  0.46212  0.04313  1.0000
  I   I334      1.0  0.10418  0.04139  0.05641  1.0000
  I   I335      1.0  0.39193  0.96557  0.02297  1.0000
  I   I336      1.0  0.99507  0.25088  0.69317  1.0000
  I   I337      1.0  0.76745  0.86619  0.37539  1.0000
  I   I338      1.0  0.95347  0.33612  0.28760  1.0000
  I   I339      1.0  0.29834  0.87339  0.32691  1.0000
  I   I340      1.0  0.07762  0.37026  0.27649  1.0000
  I   I341      1.0  0.49744  0.71155  0.46717  1.0000
  I   I342      1.0  0.66903  0.14501  0.50647  1.0000
  I   I343      1.0  0.54650  0.75951  0.10065  1.0000
  I   I344      1.0  0.12277  0.88449  0.62231  1.0000
  I   I345      1.0  0.39714  0.21879  0.94032  1.0000
  I   I346      1.0  0.88279  0.47128  0.42316  1.0000
  I   I347      1.0  0.49474  0.18206  0.77061  1.0000
  I   I348      1.0  0.87134  0.21195  0.08412  1.0000
  I   I349      1.0  0.72426  0.63680  0.53292  1.0000
  I   I350      1.0  0.73482  0.79014  0.53314  1.0000
  I   I351      1.0  0.11238  0.24627  0.99509  1.0000
  I   I352      1.0  0.19878  0.28308  0.92313  1.0000
  I   I353      1.0  0.01711  0.72207  0.39141  1.0000
  I   I354      1.0  0.65041  0.32056  0.13276  1.0000
  I   I355      1.0  0.05865  0.82646  0.33327  1.0000
  I   I356      1.0  0.94528  0.92952  0.36457  1.0000
  I   I357      1.0  0.53165  0.92392  0.76783  1.0000
  I   I358      1.0  0.79706  0.05874  0.05920  1.0000
  I   I359      1.0  0.09083  0.02065  0.43344  1.0000
  I   I360      1.0  0.28213  0.87529  0.88200  1.0000
  I   I361      1.0  0.70327  0.33818  0.18759  1.0000
  I   I362      1.0  0.52952  0.44709  0.27466  1.0000
  I   I363      1.0  0.60478  0.83955  0.44559  1.0000
  I   I364      1.0  0.32290  0.98888  0.42609  1.0000
  I   I365      1.0  0.97614  0.87871  0.72626  1.0000
  I   I366      1.0  0.29480  0.83604  0.09005  1.0000
  I   I367      1.0  0.76375  0.07241  0.96437  1.0000
  I   I368      1.0  0.09791  0.30606  0.20283  1.0000
  I   I369      1.0  0.36073  0.81172  0.80820  1.0000
  I   I370      1.0  0.72749  0.58428  0.29563  1.0000
  I   I371      1.0  0.07203  0.56646  0.40781  1.0000
  I   I372      1.0  0.79804  0.15165  0.24669  1.0000
  I   I373      1.0  0.03429  0.03055  0.82026  1.0000
  I   I374      1.0  0.61300  0.91769  0.27998  1.0000
  I   I375      1.0  0.14356  0.23576  0.53143  1.0000
  I   I376      1.0  0.84527  0.49376  0.99805  1.0000
  I   I377      1.0  0.43612  0.40848  0.14183  1.0000
  I   I378      1.0  0.96807  0.54441  0.91233  1.0000
  I   I379      1.0  0.22140  0.62680  0.23224  1.0000
  I   I380      1.0  0.44639  0.75959  0.34081  1.0000
  I   I381      1.0  0.89671  0.14963  0.11667  1.0000
  I   I382      1.0  0.13400  0.98564  0.12721  1.0000
  I   I383      1.0  0.18920  0.48133  0.87919  1.0000
  I   I384      1.0  0.23142  0.89308  0.93623  1.0000
