data_image0
_chemical_formula_structural       Ti96I384
_chemical_formula_sum              "Ti96 I384"
_cell_length_a       70.0854
_cell_length_b       69.7765
_cell_length_c       34.2029
_cell_angle_alpha    88.7757
_cell_angle_beta     88.7757
_cell_angle_gamma    62.1586

_space_group_name_H-M_alt    "P 1"
_space_group_IT_number       1

loop_
  _space_group_symop_operation_xyz
  'x, y, z'

loop_
  _atom_site_type_symbol
  _atom_site_label
  _atom_site_symmetry_multiplicity
  _atom_site_fract_x
  _atom_site_fract_y
  _atom_site_fract_z
  _atom_site_occupancy
  Ti  Ti1       1.0  0.02270  0.98827  0.37415  1.0000
  Ti  Ti2       1.0  0.06039  0.13870  0.26173  1.0000
  Ti  Ti3       1.0  0.41818  0.00405  0.29820  1.0000
  Ti  Ti4       1.0  0.99082  0.36811  0.52714  1.0000
  Ti  Ti5       1.0  0.36686  0.60996  0.23143  1.0000
  Ti  Ti6       1.0  0.69906  0.99352  0.04288  1.0000
  Ti  Ti7       1.0  0.86399  0.65806  0.61380  1.0000
  Ti  Ti8       1.0  0.26644  0.54499  0.52480  1.0000
  Ti  Ti9       1.0  0.41914  0.07742  0.57072  1.0000
  Ti  Ti10      1.0  0.29659  0.44803  0.82086  1.0000
  Ti  Ti11      1.0  0.26224  0.24880  0.71286  1.0000
  Ti  Ti12      1.0  0.78807  0.74563  0.97086  1.0000
  Ti  Ti13      1.0  0.81599  0.29075  0.69449  1.0000
  Ti  Ti14      1.0  0.80350  0.13689  0.67426  1.0000
  Ti  Ti15      1.0  0.69873  0.72731  0.81370  1.0000
  Ti  Ti16      1.0  0.33545  0.46897  0.77427  1.0000
  Ti  Ti17      1.0  0.32344  0.88803  0.46687  1.0000
  Ti  Ti18      1.0  0.49851  0.82277  0.57502  1.0000
  Ti  Ti19      1.0  0.49241  0.58832  0.53909  1.0000
  Ti  Ti20      1.0  0.52141  0.19130  0.76545  1.0000
  Ti  Ti21      1.0  0.25221  0.57266  0.43114  1.0000
  Ti  Ti22      1.0  0.55161  0.96338  0.52111  1.0000
  Ti  Ti23      1.0  0.23260  0.15874  0.28048  1.0000
  Ti  Ti24      1.0  0.16793  0.79795  0.83903  1.0000
  Ti  Ti25      1.0  0.39515  0.16986  0.73359  1.0000
  Ti  Ti26      1.0  0.95859  0.94100  0.02680  1.0000
  Ti  Ti27      1.0  0.81926  0.17238  0.18878  1.0000
  Ti  Ti28      1.0  0.53329  0.86338  0.82253  1.0000
  Ti  Ti29      1.0  0.06923  0.75713  0.69118  1.0000
  Ti  Ti30      1.0  0.33928  0.87895  0.72298  1.0000
  Ti  Ti31      1.0  0.02727  0.46724  0.60720  1.0000
  Ti  Ti32      1.0  0.30433  0.93279  0.01397  1.0000
  Ti  Ti33      1.0  0.23893  0.79317  0.33642  1.0000
  Ti  Ti34      1.0  0.56536  0.37548  0.92764  1.0000
  Ti  Ti35      1.0  0.80905  0.57742  0.76474  1.0000
  Ti  Ti36      1.0  0.12527  0.19734  0.01592  1.0000
  Ti  Ti37      1.0  0.24524  0.18532  0.64457  1.0000
  Ti  Ti38      1.0  0.63850  0.39780  0.07460  1.0000
  Ti  Ti39      1.0  0.00249  0.56068  0.16347  1.0000
  Ti  Ti40      1.0  0.80653  0.52266  0.09637  1.0000
  Ti  Ti41      1.0  0.47147  0.20124  0.47918  1.0000
  Ti  Ti42      1.0  0.14465  0.91227  0.75392  1.0000
  Ti  Ti43      1.0  0.11920  0.13870  0.38909  1.0000
  Ti  Ti44      1.0  0.62342  0.97934  0.72040  1.0000
  Ti  Ti45      1.0  0.25877  0.31159  0.08224  1.0000
  Ti  Ti46      1.0  0.60805  0.56780  0.10202  1.0000
  Ti  Ti47      1.0  0.58447  0.37258  0.60471  1.0000
  Ti  Ti48      1.0  0.88820  0.04401  0.24839  1.0000
  Ti  Ti49      1.0  0.07347  0.07151  0.71006  1.0000
  Ti  Ti50      1.0  0.16715  0.32437  0.53850  1.0000
  Ti  Ti51      1.0  0.01101  0.12881  0.22487  1.0000
  Ti  Ti52      1.0  0.63886  0.15533  0.04225  1.0000
  Ti  Ti53      1.0  0.39576  0.75536  0.22741  1.0000
  Ti  Ti54      1.0  0.93495  0.83646  0.32241  1.0000
  Ti  Ti55      1.0  0.84453  0.69758  0.53732  1.0000
  Ti  Ti56      1.0  0.56521  0.27934  0.38207  1.0000
  Ti  Ti57      1.0  0.44248  0.09831  0.49597  1.0000
  Ti  Ti58      1.0  0.70435  0.26175  0.60890  1.0000
  Ti  Ti59      1.0  0.67160  0.25546  0.93465  1.0000
  Ti  Ti60      1.0  0.84351  0.71345  0.05290  1.0000
  Ti  Ti61      1.0  0.63128  0.75672  0.78663  1.0000
  Ti  Ti62      1.0  0.84810  0.31535  0.58917  1.0000
  Ti  Ti63      1.0  0.78246  0.12645  0.53234  1.0000
  Ti  Ti64      1.0  0.45533  0.84167  0.61509  1.0000
  Ti  Ti65      1.0  0.75754  0.88566  0.45462  1.0000
  Ti  Ti66      1.0  0.38041  0.29732  0.91435  1.0000
  Ti  Ti67      1.0  0.67416  0.80784  0.04901  1.0000
  Ti  Ti68      1.0  0.48201  0.61206  0.40958  1.0000
  Ti  Ti69      1.0  0.92978  0.90462  0.01757  1.0000
  Ti  Ti70      1.0  0.60632  0.79353  0.16285  1.0000
  Ti  Ti71      1.0  0.28386  0.15446  0.28621  1.0000
  Ti  Ti72      1.0  0.55933  0.33959  0.67594  1.0000
  Ti  Ti73      1.0  0.76536  0.16200  0.20642  1.0000
  Ti  Ti74      1.0  0.36746  0.15905  0.80078  1.0000
  Ti  Ti75      1.0  0.41376  0.81366  0.02465  1.0000
  Ti  Ti76      1.0  0.33971  0.94575  0.68620  1.0000
  Ti  Ti77      1.0  0.50233  0.89687  0.93881  1.0000
  Ti  Ti78      1.0  0.08952  0.79503  0.60435  1.0000
  Ti  Ti79      1.0  0.57443  0.74538  0.31149  1.0000
  Ti  Ti80      1.0  0.95328  0.36655  0.59217  1.0000
  Ti  Ti81      1.0  0.29212  0.99356  0.94668  1.0000
  Ti  Ti82      1.0  0.42073  0.24668  0.12305  1.0000
  Ti  Ti83      1.0  0.78403  0.55475  0.69599  1.0000
  Ti  Ti84      1.0  0.14121  0.15099  0.06022  1.0000
  Ti  Ti85      1.0  0.21249  0.22421  0.60151  1.0000
  Ti  Ti86      1.0  0.35956  0.33424  0.85465  1.0000
  Ti  Ti87      1.0  0.22206  0.28820  0.10850  1.0000
  Ti  Ti88      1.0  0.58966  0.18424  0.94391  1.0000
  Ti  Ti89      1.0  0.45994  0.25294  0.54819  1.0000
  Ti  Ti90      1.0  0.20011  0.88800  0.75490  1.0000
  Ti  Ti91      1.0  0.19026  0.52909  0.11352  1.0000
  Ti  Ti92      1.0  0.38200  0.60858  0.95546  1.0000
  Ti  Ti93      1.0  0.09495  0.69905  0.14423  1.0000
  Ti  Ti94      1.0  0.89068  0.00146  0.33366  1.0000
  Ti  Ti95      1.0  0.65795  0.44132  0.84282  1.0000
  Ti  Ti96      1.0  0.64482  0.59096  0.89039  1.0000
  I   I1        1.0  0.59260  0.37748  0.52730  1.0000
  I   I2        1.0  0.05451  0.12102  0.19328  1.0000
  I   I3        1.0  0.07307  0.09005  0.63779  1.0000
  I   I4        1.0  0.41435  0.77171  0.17988  1.0000
  I   I5        1.0  0.73637  0.95667  0.04023  1.0000
  I   I6        1.0  0.94523  0.85681  0.26895  1.0000
  I   I7        1.0  0.21709  0.57136  0.44280  1.0000
  I   I8        1.0  0.58068  0.25865  0.44602  1.0000
  I   I9        1.0  0.43696  0.12041  0.43663  1.0000
  I   I10       1.0  0.37514  0.45966  0.78494  1.0000
  I   I11       1.0  0.28659  0.26528  0.74002  1.0000
  I   I12       1.0  0.33166  0.62464  0.26897  1.0000
  I   I13       1.0  0.77404  0.31639  0.67850  1.0000
  I   I14       1.0  0.73956  0.14721  0.52021  1.0000
  I   I15       1.0  0.72778  0.69187  0.77694  1.0000
  I   I16       1.0  0.33405  0.47280  0.70203  1.0000
  I   I17       1.0  0.42395  0.27692  0.91686  1.0000
  I   I18       1.0  0.51580  0.83276  0.51166  1.0000
  I   I19       1.0  0.56226  0.17274  0.77503  1.0000
  I   I20       1.0  0.22303  0.27423  0.72554  1.0000
  I   I21       1.0  0.24861  0.58445  0.55684  1.0000
  I   I22       1.0  0.22048  0.13231  0.31183  1.0000
  I   I23       1.0  0.25795  0.18111  0.23141  1.0000
  I   I24       1.0  0.61795  0.80082  0.22983  1.0000
  I   I25       1.0  0.34034  0.14404  0.78584  1.0000
  I   I26       1.0  0.44798  0.77772  0.01726  1.0000
  I   I27       1.0  0.80495  0.13277  0.21764  1.0000
  I   I28       1.0  0.57191  0.85189  0.80764  1.0000
  I   I29       1.0  0.12863  0.77968  0.63133  1.0000
  I   I30       1.0  0.37246  0.85894  0.68068  1.0000
  I   I31       1.0  0.91529  0.40023  0.60292  1.0000
  I   I32       1.0  0.27452  0.96507  0.96365  1.0000
  I   I33       1.0  0.58554  0.73540  0.23707  1.0000
  I   I34       1.0  0.80158  0.59117  0.83512  1.0000
  I   I35       1.0  0.14204  0.16890  0.12997  1.0000
  I   I36       1.0  0.54523  0.36345  0.97842  1.0000
  I   I37       1.0  0.23162  0.22766  0.67515  1.0000
  I   I38       1.0  0.02285  0.56291  0.22083  1.0000
  I   I39       1.0  0.21059  0.18443  0.60594  1.0000
  I   I40       1.0  0.51167  0.16768  0.47640  1.0000
  I   I41       1.0  0.19090  0.85913  0.72016  1.0000
  I   I42       1.0  0.81764  0.48245  0.12150  1.0000
  I   I43       1.0  0.73012  0.23008  0.56095  1.0000
  I   I44       1.0  0.60843  0.02012  0.73329  1.0000
  I   I45       1.0  0.21350  0.33059  0.10906  1.0000
  I   I46       1.0  0.70037  0.42198  0.84567  1.0000
  I   I47       1.0  0.54815  0.40882  0.61469  1.0000
  I   I48       1.0  0.91491  0.04215  0.19055  1.0000
  I   I49       1.0  0.10165  0.04367  0.75814  1.0000
  I   I50       1.0  0.97767  0.13492  0.27232  1.0000
  I   I51       1.0  0.98895  0.15378  0.16581  1.0000
  I   I52       1.0  0.94577  0.36518  0.67422  1.0000
  I   I53       1.0  0.40485  0.71716  0.19685  1.0000
  I   I54       1.0  0.95219  0.83597  0.39208  1.0000
  I   I55       1.0  0.84694  0.64410  0.67298  1.0000
  I   I56       1.0  0.26176  0.56356  0.35196  1.0000
  I   I57       1.0  0.38168  0.09563  0.60936  1.0000
  I   I58       1.0  0.32017  0.44029  0.88725  1.0000
  I   I59       1.0  0.69556  0.27459  0.92604  1.0000
  I   I60       1.0  0.80407  0.71239  0.04813  1.0000
  I   I61       1.0  0.87450  0.28348  0.54873  1.0000
  I   I62       1.0  0.82439  0.25037  0.70273  1.0000
  I   I63       1.0  0.78363  0.08678  0.53173  1.0000
  I   I64       1.0  0.28812  0.48413  0.77845  1.0000
  I   I65       1.0  0.78922  0.84978  0.42679  1.0000
  I   I66       1.0  0.37385  0.26418  0.94887  1.0000
  I   I67       1.0  0.53081  0.56180  0.56760  1.0000
  I   I68       1.0  0.51800  0.16893  0.70882  1.0000
  I   I69       1.0  0.95838  0.87319  0.97722  1.0000
  I   I70       1.0  0.63474  0.75546  0.13760  1.0000
  I   I71       1.0  0.24295  0.13782  0.21666  1.0000
  I   I72       1.0  0.58949  0.35538  0.69085  1.0000
  I   I73       1.0  0.75018  0.13515  0.21646  1.0000
  I   I74       1.0  0.93400  0.98184  0.00817  1.0000
  I   I75       1.0  0.97898  0.92886  0.96329  1.0000
  I   I76       1.0  0.47032  0.93872  0.92732  1.0000
  I   I77       1.0  0.54286  0.86914  0.89769  1.0000
  I   I78       1.0  0.01160  0.96966  0.31600  1.0000
  I   I79       1.0  0.20088  0.79591  0.35037  1.0000
  I   I80       1.0  0.99756  0.49198  0.65466  1.0000
  I   I81       1.0  0.30980  0.97679  0.01868  1.0000
  I   I82       1.0  0.40885  0.22262  0.07106  1.0000
  I   I83       1.0  0.81065  0.58553  0.69239  1.0000
  I   I84       1.0  0.08677  0.19569  0.02389  1.0000
  I   I85       1.0  0.25374  0.21413  0.58619  1.0000
  I   I86       1.0  0.32892  0.37321  0.86261  1.0000
  I   I87       1.0  0.96649  0.56120  0.18549  1.0000
  I   I88       1.0  0.83273  0.52999  0.04658  1.0000
  I   I89       1.0  0.42954  0.29544  0.55340  1.0000
  I   I90       1.0  0.17323  0.92561  0.79172  1.0000
  I   I91       1.0  0.17070  0.51805  0.05826  1.0000
  I   I92       1.0  0.42210  0.58675  0.98619  1.0000
  I   I93       1.0  0.62201  0.97004  0.64366  1.0000
  I   I94       1.0  0.92869  0.97867  0.36319  1.0000
  I   I95       1.0  0.64551  0.55064  0.06900  1.0000
  I   I96       1.0  0.60759  0.59459  0.90937  1.0000
  I   I97       1.0  0.40051  0.98937  0.24821  1.0000
  I   I98       1.0  0.05842  0.95370  0.39374  1.0000
  I   I99       1.0  0.10798  0.11532  0.24635  1.0000
  I   I100      1.0  0.94917  0.37436  0.51273  1.0000
  I   I101      1.0  0.65143  0.17092  0.09141  1.0000
  I   I102      1.0  0.39820  0.61130  0.26931  1.0000
  I   I103      1.0  0.88155  0.66648  0.54384  1.0000
  I   I104      1.0  0.81843  0.70191  0.48350  1.0000
  I   I105      1.0  0.45559  0.05624  0.51934  1.0000
  I   I106      1.0  0.74777  0.75000  0.97264  1.0000
  I   I107      1.0  0.28569  0.42461  0.78066  1.0000
  I   I108      1.0  0.84150  0.72634  0.12521  1.0000
  I   I109      1.0  0.69661  0.72229  0.88780  1.0000
  I   I110      1.0  0.85679  0.30282  0.66982  1.0000
  I   I111      1.0  0.77683  0.16456  0.51977  1.0000
  I   I112      1.0  0.49208  0.82125  0.65735  1.0000
  I   I113      1.0  0.72106  0.90716  0.41218  1.0000
  I   I114      1.0  0.31924  0.89426  0.54816  1.0000
  I   I115      1.0  0.66233  0.77863  0.06109  1.0000
  I   I116      1.0  0.68180  0.80795  0.97275  1.0000
  I   I117      1.0  0.51601  0.58266  0.45613  1.0000
  I   I118      1.0  0.55841  0.97507  0.58564  1.0000
  I   I119      1.0  0.60747  0.82316  0.11828  1.0000
  I   I120      1.0  0.56042  0.30519  0.64582  1.0000
  I   I121      1.0  0.78538  0.17255  0.14600  1.0000
  I   I122      1.0  0.43482  0.14400  0.70939  1.0000
  I   I123      1.0  0.37435  0.81803  0.04295  1.0000
  I   I124      1.0  0.35212  0.85819  0.78844  1.0000
  I   I125      1.0  0.51600  0.90088  0.78503  1.0000
  I   I126      1.0  0.10869  0.74535  0.71358  1.0000
  I   I127      1.0  0.25578  0.79981  0.39863  1.0000
  I   I128      1.0  0.03126  0.34460  0.54392  1.0000
  I   I129      1.0  0.29717  0.90066  0.99373  1.0000
  I   I130      1.0  0.11612  0.13362  0.08295  1.0000
  I   I131      1.0  0.37997  0.25397  0.13724  1.0000
  I   I132      1.0  0.78203  0.51822  0.70600  1.0000
  I   I133      1.0  0.02244  0.51678  0.13962  1.0000
  I   I134      1.0  0.59634  0.40512  0.07739  1.0000
  I   I135      1.0  0.40037  0.27627  0.84080  1.0000
  I   I136      1.0  0.22688  0.89875  0.71938  1.0000
  I   I137      1.0  0.57421  0.22508  0.93563  1.0000
  I   I138      1.0  0.45045  0.24651  0.46665  1.0000
  I   I139      1.0  0.16697  0.52706  0.17150  1.0000
  I   I140      1.0  0.36323  0.60174  0.01748  1.0000
  I   I141      1.0  0.06394  0.71493  0.20064  1.0000
  I   I142      1.0  0.88125  0.97370  0.29836  1.0000
  I   I143      1.0  0.57997  0.60394  0.06005  1.0000
  I   I144      1.0  0.67014  0.55235  0.92606  1.0000
  I   I145      1.0  0.99147  0.99469  0.42525  1.0000
  I   I146      1.0  0.06551  0.17449  0.25606  1.0000
  I   I147      1.0  0.44860  0.97643  0.33493  1.0000
  I   I148      1.0  0.66744  0.11827  0.99745  1.0000
  I   I149      1.0  0.35960  0.64036  0.17910  1.0000
  I   I150      1.0  0.66150  0.01709  0.06601  1.0000
  I   I151      1.0  0.81830  0.73290  0.57521  1.0000
  I   I152      1.0  0.29886  0.52407  0.56726  1.0000
  I   I153      1.0  0.46461  0.11601  0.53475  1.0000
  I   I154      1.0  0.10019  0.17477  0.34714  1.0000
  I   I155      1.0  0.27001  0.25405  0.64365  1.0000
  I   I156      1.0  0.85979  0.66802  0.07124  1.0000
  I   I157      1.0  0.72535  0.74617  0.81469  1.0000
  I   I158      1.0  0.82336  0.11139  0.49785  1.0000
  I   I159      1.0  0.61283  0.79396  0.75721  1.0000
  I   I160      1.0  0.46254  0.82024  0.54306  1.0000
  I   I161      1.0  0.29560  0.92991  0.44480  1.0000
  I   I162      1.0  0.47277  0.86756  0.57340  1.0000
  I   I163      1.0  0.47131  0.56482  0.54449  1.0000
  I   I164      1.0  0.44219  0.63795  0.38174  1.0000
  I   I165      1.0  0.29093  0.55920  0.46920  1.0000
  I   I166      1.0  0.53938  0.99600  0.47674  1.0000
  I   I167      1.0  0.24140  0.18869  0.32304  1.0000
  I   I168      1.0  0.19051  0.82079  0.85845  1.0000
  I   I169      1.0  0.34947  0.19769  0.75996  1.0000
  I   I170      1.0  0.40301  0.12401  0.82270  1.0000
  I   I171      1.0  0.75166  0.17455  0.28152  1.0000
  I   I172      1.0  0.38187  0.93583  0.68155  1.0000
  I   I173      1.0  0.07833  0.79706  0.52512  1.0000
  I   I174      1.0  0.34418  0.91062  0.75416  1.0000
  I   I175      1.0  0.01761  0.44374  0.55941  1.0000
  I   I176      1.0  0.29680  0.93425  0.08801  1.0000
  I   I177      1.0  0.53251  0.75673  0.32405  1.0000
  I   I178      1.0  0.43472  0.22374  0.18246  1.0000
  I   I179      1.0  0.80124  0.54333  0.62420  1.0000
  I   I180      1.0  0.11176  0.22149  0.08023  1.0000
  I   I181      1.0  0.16602  0.24733  0.60578  1.0000
  I   I182      1.0  0.38086  0.34235  0.91360  1.0000
  I   I183      1.0  0.25989  0.28298  0.15100  1.0000
  I   I184      1.0  0.61266  0.16476  0.88108  1.0000
  I   I185      1.0  0.49281  0.20833  0.54005  1.0000
  I   I186      1.0  0.11299  0.95016  0.77044  1.0000
  I   I187      1.0  0.36529  0.64860  0.97118  1.0000
  I   I188      1.0  0.66542  0.95955  0.73280  1.0000
  I   I189      1.0  0.23801  0.33268  0.01583  1.0000
  I   I190      1.0  0.61392  0.57900  0.17586  1.0000
  I   I191      1.0  0.17004  0.30410  0.47097  1.0000
  I   I192      1.0  0.86856  0.08666  0.25377  1.0000
  I   I193      1.0  0.06468  0.80254  0.66717  1.0000
  I   I194      1.0  0.13981  0.32207  0.59559  1.0000
  I   I195      1.0  0.38640  0.01964  0.34822  1.0000
  I   I196      1.0  0.00353  0.34332  0.46640  1.0000
  I   I197      1.0  0.68093  0.25217  0.65952  1.0000
  I   I198      1.0  0.71208  0.01993  0.06210  1.0000
  I   I199      1.0  0.84277  0.65198  0.54680  1.0000
  I   I200      1.0  0.52875  0.27826  0.37052  1.0000
  I   I201      1.0  0.41308  0.04234  0.57599  1.0000
  I   I202      1.0  0.68742  0.22776  0.99037  1.0000
  I   I203      1.0  0.90053  0.89540  0.04841  1.0000
  I   I204      1.0  0.82152  0.75046  0.99556  1.0000
  I   I205      1.0  0.81620  0.30682  0.76131  1.0000
  I   I206      1.0  0.82677  0.10771  0.72622  1.0000
  I   I207      1.0  0.66734  0.75929  0.77214  1.0000
  I   I208      1.0  0.33834  0.42870  0.78050  1.0000
  I   I209      1.0  0.29458  0.86886  0.47221  1.0000
  I   I210      1.0  0.57161  0.77763  0.36026  1.0000
  I   I211      1.0  0.65197  0.84812  0.06628  1.0000
  I   I212      1.0  0.48996  0.22912  0.75726  1.0000
  I   I213      1.0  0.92502  0.92981  0.95334  1.0000
  I   I214      1.0  0.58469  0.93321  0.48635  1.0000
  I   I215      1.0  0.27730  0.12785  0.34289  1.0000
  I   I216      1.0  0.12740  0.82559  0.85195  1.0000
  I   I217      1.0  0.38128  0.19641  0.67596  1.0000
  I   I218      1.0  0.40873  0.81894  0.94837  1.0000
  I   I219      1.0  0.84861  0.14923  0.13894  1.0000
  I   I220      1.0  0.49154  0.88093  0.86674  1.0000
  I   I221      1.0  0.07728  0.71678  0.70446  1.0000
  I   I222      1.0  0.31650  0.92557  0.67329  1.0000
  I   I223      1.0  0.03775  0.49110  0.55788  1.0000
  I   I224      1.0  0.31558  0.01329  0.92143  1.0000
  I   I225      1.0  0.26095  0.75282  0.34372  1.0000
  I   I226      1.0  0.46145  0.21798  0.08518  1.0000
  I   I227      1.0  0.85084  0.56697  0.77506  1.0000
  I   I228      1.0  0.12832  0.15959  0.97401  1.0000
  I   I229      1.0  0.24426  0.16033  0.70312  1.0000
  I   I230      1.0  0.66848  0.35757  0.08229  1.0000
  I   I231      1.0  0.00068  0.58243  0.09731  1.0000
  I   I232      1.0  0.77894  0.16938  0.72095  1.0000
  I   I233      1.0  0.45900  0.19142  0.41691  1.0000
  I   I234      1.0  0.22372  0.86773  0.81067  1.0000
  I   I235      1.0  0.09135  0.12192  0.40456  1.0000
  I   I236      1.0  0.09686  0.66284  0.12974  1.0000
  I   I237      1.0  0.17491  0.56989  0.10648  1.0000
  I   I238      1.0  0.64222  0.44061  0.77510  1.0000
  I   I239      1.0  0.63300  0.61485  0.82775  1.0000
  I   I240      1.0  0.87163  0.00218  0.40152  1.0000
  I   I241      1.0  0.05088  0.10851  0.73816  1.0000
  I   I242      1.0  0.05206  0.11524  0.31594  1.0000
  I   I243      1.0  0.43168  0.03516  0.28824  1.0000
  I   I244      1.0  0.62905  0.17849  0.96942  1.0000
  I   I245      1.0  0.41200  0.75188  0.29602  1.0000
  I   I246      1.0  0.69722  0.98884  0.96761  1.0000
  I   I247      1.0  0.85555  0.69611  0.65116  1.0000
  I   I248      1.0  0.27131  0.51781  0.45988  1.0000
  I   I249      1.0  0.42116  0.11328  0.59405  1.0000
  I   I250      1.0  0.63601  0.28874  0.95550  1.0000
  I   I251      1.0  0.27569  0.21511  0.76818  1.0000
  I   I252      1.0  0.80432  0.71645  0.92038  1.0000
  I   I253      1.0  0.85816  0.34639  0.60062  1.0000
  I   I254      1.0  0.83281  0.14433  0.64577  1.0000
  I   I255      1.0  0.66028  0.71209  0.79892  1.0000
  I   I256      1.0  0.77476  0.90692  0.49503  1.0000
  I   I257      1.0  0.36720  0.87356  0.46048  1.0000
  I   I258      1.0  0.43476  0.82345  0.66121  1.0000
  I   I259      1.0  0.71167  0.79267  0.08532  1.0000
  I   I260      1.0  0.46278  0.62028  0.49519  1.0000
  I   I261      1.0  0.24179  0.52501  0.54284  1.0000
  I   I262      1.0  0.52192  0.95382  0.53574  1.0000
  I   I263      1.0  0.19536  0.19151  0.26312  1.0000
  I   I264      1.0  0.17102  0.76263  0.87729  1.0000
  I   I265      1.0  0.38007  0.13783  0.71923  1.0000
  I   I266      1.0  0.96471  0.89809  0.06002  1.0000
  I   I267      1.0  0.73011  0.19469  0.17868  1.0000
  I   I268      1.0  0.53271  0.90736  0.96303  1.0000
  I   I269      1.0  0.07872  0.83627  0.58448  1.0000
  I   I270      1.0  0.33074  0.96291  0.75454  1.0000
  I   I271      1.0  0.05627  0.43269  0.64458  1.0000
  I   I272      1.0  0.25412  0.02669  0.97512  1.0000
  I   I273      1.0  0.23304  0.80446  0.26381  1.0000
  I   I274      1.0  0.58681  0.34932  0.87126  1.0000
  I   I275      1.0  0.74614  0.58677  0.69024  1.0000
  I   I276      1.0  0.17412  0.11431  0.06377  1.0000
  I   I277      1.0  0.42603  0.27408  0.07358  1.0000
  I   I278      1.0  0.64996  0.40705  0.00690  1.0000
  I   I279      1.0  0.23560  0.24689  0.09727  1.0000
  I   I280      1.0  0.58674  0.19311  0.02837  1.0000
  I   I281      1.0  0.45774  0.17843  0.53204  1.0000
  I   I282      1.0  0.16833  0.91589  0.69131  1.0000
  I   I283      1.0  0.14772  0.11216  0.34377  1.0000
  I   I284      1.0  0.06719  0.73288  0.10210  1.0000
  I   I285      1.0  0.27440  0.33183  0.12211  1.0000
  I   I286      1.0  0.65100  0.48214  0.84026  1.0000
  I   I287      1.0  0.62140  0.37677  0.62890  1.0000
  I   I288      1.0  0.88299  0.04586  0.32240  1.0000
  I   I289      1.0  0.05147  0.05286  0.70144  1.0000
  I   I290      1.0  0.20275  0.29772  0.58006  1.0000
  I   I291      1.0  0.02009  0.15938  0.26671  1.0000
  I   I292      1.0  0.62190  0.13498  0.08459  1.0000
  I   I293      1.0  0.35420  0.77680  0.23323  1.0000
  I   I294      1.0  0.95215  0.79692  0.31330  1.0000
  I   I295      1.0  0.89548  0.62077  0.63128  1.0000
  I   I296      1.0  0.55841  0.31833  0.37084  1.0000
  I   I297      1.0  0.44607  0.05866  0.63193  1.0000
  I   I298      1.0  0.68879  0.29684  0.56915  1.0000
  I   I299      1.0  0.26328  0.47395  0.86621  1.0000
  I   I300      1.0  0.88168  0.70695  0.03216  1.0000
  I   I301      1.0  0.59808  0.75165  0.77426  1.0000
  I   I302      1.0  0.82268  0.28656  0.61311  1.0000
  I   I303      1.0  0.77276  0.53683  0.05133  1.0000
  I   I304      1.0  0.52315  0.78164  0.56686  1.0000
  I   I305      1.0  0.32485  0.50605  0.81311  1.0000
  I   I306      1.0  0.33697  0.32334  0.92378  1.0000
  I   I307      1.0  0.48528  0.58239  0.35612  1.0000
  I   I308      1.0  0.50720  0.17311  0.81209  1.0000
  I   I309      1.0  0.24774  0.60949  0.44944  1.0000
  I   I310      1.0  0.12741  0.13554  0.46602  1.0000
  I   I311      1.0  0.31355  0.15656  0.32977  1.0000
  I   I312      1.0  0.55743  0.33233  0.75113  1.0000
  I   I313      1.0  0.84271  0.16308  0.24753  1.0000
  I   I314      1.0  0.40110  0.19048  0.78799  1.0000
  I   I315      1.0  0.41938  0.84473  0.04953  1.0000
  I   I316      1.0  0.32247  0.98217  0.64228  1.0000
  I   I317      1.0  0.52891  0.83347  0.79316  1.0000
  I   I318      1.0  0.07423  0.76511  0.59834  1.0000
  I   I319      1.0  0.58425  0.71179  0.35665  1.0000
  I   I320      1.0  0.99049  0.40007  0.48670  1.0000
  I   I321      1.0  0.34575  0.91305  0.00491  1.0000
  I   I322      1.0  0.58031  0.39198  0.97814  1.0000
  I   I323      1.0  0.81913  0.53406  0.74908  1.0000
  I   I324      1.0  0.16898  0.17757  0.02117  1.0000
  I   I325      1.0  0.27851  0.15327  0.61846  1.0000
  I   I326      1.0  0.38068  0.33954  0.79476  1.0000
  I   I327      1.0  0.20858  0.29336  0.02925  1.0000
  I   I328      1.0  0.79822  0.55429  0.14366  1.0000
  I   I329      1.0  0.46006  0.24356  0.61860  1.0000
  I   I330      1.0  0.15765  0.88218  0.80866  1.0000
  I   I331      1.0  0.29553  0.27927  0.04876  1.0000
  I   I332      1.0  0.73186  0.26781  0.64944  1.0000
  I   I333      1.0  0.59371  0.96882  0.75095  1.0000
  I   I334      1.0  0.85323  0.04013  0.24529  1.0000
  I   I335      1.0  0.60585  0.53360  0.07665  1.0000
  I   I336      1.0  0.64582  0.61950  0.93571  1.0000
  I   I337      1.0  0.03455  0.01519  0.33367  1.0000
  I   I338      1.0  0.15427  0.36490  0.51192  1.0000
  I   I339      1.0  0.01676  0.08810  0.22988  1.0000
  I   I340      1.0  0.95289  0.32664  0.58653  1.0000
  I   I341      1.0  0.38855  0.57792  0.18179  1.0000
  I   I342      1.0  0.89399  0.86226  0.34075  1.0000
  I   I343      1.0  0.86633  0.71137  0.48249  1.0000
  I   I344      1.0  0.59680  0.26646  0.32802  1.0000
  I   I345      1.0  0.40129  0.09718  0.49104  1.0000
  I   I346      1.0  0.57144  0.79308  0.17632  1.0000
  I   I347      1.0  0.66795  0.24257  0.86385  1.0000
  I   I348      1.0  0.77430  0.77749  0.91911  1.0000
  I   I349      1.0  0.62874  0.76454  0.86087  1.0000
  I   I350      1.0  0.81092  0.33750  0.54949  1.0000
  I   I351      1.0  0.79175  0.12472  0.61308  1.0000
  I   I352      1.0  0.43789  0.86792  0.67321  1.0000
  I   I353      1.0  0.74459  0.87508  0.51581  1.0000
  I   I354      1.0  0.34007  0.32045  0.80961  1.0000
  I   I355      1.0  0.47908  0.61387  0.59957  1.0000
  I   I356      1.0  0.51984  0.60826  0.37663  1.0000
  I   I357      1.0  0.98806  0.94273  0.06278  1.0000
  I   I358      1.0  0.17455  0.79379  0.76548  1.0000
  I   I359      1.0  0.30412  0.11734  0.25065  1.0000
  I   I360      1.0  0.52241  0.37981  0.66184  1.0000
  I   I361      1.0  0.80823  0.21207  0.16406  1.0000
  I   I362      1.0  0.34878  0.17134  0.86676  1.0000
  I   I363      1.0  0.91821  0.94807  0.05546  1.0000
  I   I364      1.0  0.30360  0.87279  0.71276  1.0000
  I   I365      1.0  0.48840  0.87003  0.97227  1.0000
  I   I366      1.0  0.04209  0.77596  0.74703  1.0000
  I   I367      1.0  0.61754  0.73136  0.32080  1.0000
  I   I368      1.0  0.98236  0.38002  0.60512  1.0000
  I   I369      1.0  0.29153  0.97710  0.87561  1.0000
  I   I370      1.0  0.53759  0.40615  0.88349  1.0000
  I   I371      1.0  0.77419  0.56443  0.77714  1.0000
  I   I372      1.0  0.11193  0.23014  0.95635  1.0000
  I   I373      1.0  0.21055  0.23103  0.52662  1.0000
  I   I374      1.0  0.63574  0.41602  0.14170  1.0000
  I   I375      1.0  0.20456  0.28577  0.17470  1.0000
  I   I376      1.0  0.54966  0.18842  0.93023  1.0000
  I   I377      1.0  0.49165  0.26294  0.51220  1.0000
  I   I378      1.0  0.12378  0.89505  0.71323  1.0000
  I   I379      1.0  0.22962  0.50643  0.13497  1.0000
  I   I380      1.0  0.35744  0.60507  0.90390  1.0000
  I   I381      1.0  0.12960  0.69723  0.12039  1.0000
  I   I382      1.0  0.91127  0.99517  0.25244  1.0000
  I   I383      1.0  0.63787  0.43965  0.90562  1.0000
  I   I384      1.0  0.59297  0.33304  0.60190  1.0000
