data_image0
_chemical_formula_structural       Ti96I384
_chemical_formula_sum              "Ti96 I384"
_cell_length_a       58.8446
_cell_length_b       59.3648
_cell_length_c       28.6818
_cell_angle_alpha    88.7757
_cell_angle_beta     88.7757
_cell_angle_gamma    62.1586

_space_group_name_H-M_alt    "P 1"
_space_group_IT_number       1

loop_
  _space_group_symop_operation_xyz
  'x, y, z'

loop_
  _atom_site_type_symbol
  _atom_site_label
  _atom_site_symmetry_multiplicity
  _atom_site_fract_x
  _atom_site_fract_y
  _atom_site_fract_z
  _atom_site_occupancy
  Ti  Ti1       1.0  0.88513  0.84978  0.74737  1.0000
  Ti  Ti2       1.0  0.78793  0.03384  0.85206  1.0000
  Ti  Ti3       1.0  0.73500  0.83859  0.62496  1.0000
  Ti  Ti4       1.0  0.44948  0.43477  0.35347  1.0000
  Ti  Ti5       1.0  0.05210  0.75627  0.33473  1.0000
  Ti  Ti6       1.0  0.25082  0.04586  0.13356  1.0000
  Ti  Ti7       1.0  0.02272  0.91760  0.89378  1.0000
  Ti  Ti8       1.0  0.22694  0.66376  0.36236  1.0000
  Ti  Ti9       1.0  0.76483  0.28263  0.26444  1.0000
  Ti  Ti10      1.0  0.61980  0.16267  0.28394  1.0000
  Ti  Ti11      1.0  0.15617  0.61028  0.76771  1.0000
  Ti  Ti12      1.0  0.62998  0.73558  0.10528  1.0000
  Ti  Ti13      1.0  0.43831  0.16365  0.65640  1.0000
  Ti  Ti14      1.0  0.09598  0.28202  0.02432  1.0000
  Ti  Ti15      1.0  0.21699  0.89820  0.98763  1.0000
  Ti  Ti16      1.0  0.96610  0.07899  0.54771  1.0000
  Ti  Ti17      1.0  0.12405  0.48663  0.09894  1.0000
  Ti  Ti18      1.0  0.00086  0.41479  0.28575  1.0000
  Ti  Ti19      1.0  0.68879  0.76212  0.39432  1.0000
  Ti  Ti20      1.0  0.63384  0.95431  0.16015  1.0000
  Ti  Ti21      1.0  0.24077  0.53931  0.58095  1.0000
  Ti  Ti22      1.0  0.42721  0.97509  0.44381  1.0000
  Ti  Ti23      1.0  0.47969  0.85897  0.86689  1.0000
  Ti  Ti24      1.0  0.47275  0.04147  0.57111  1.0000
  Ti  Ti25      1.0  0.20376  0.22571  0.45648  1.0000
  Ti  Ti26      1.0  0.30198  0.33584  0.93216  1.0000
  Ti  Ti27      1.0  0.44882  0.50324  0.61501  1.0000
  Ti  Ti28      1.0  0.61390  0.60879  0.68802  1.0000
  Ti  Ti29      1.0  0.98885  0.26675  0.50050  1.0000
  Ti  Ti30      1.0  0.76308  0.52026  0.78671  1.0000
  Ti  Ti31      1.0  0.78923  0.39776  0.15315  1.0000
  Ti  Ti32      1.0  0.87192  0.01140  0.04637  1.0000
  Ti  Ti33      1.0  0.26672  0.95082  0.60637  1.0000
  Ti  Ti34      1.0  0.96784  0.73706  0.43204  1.0000
  Ti  Ti35      1.0  0.60993  0.50879  0.93742  1.0000
  Ti  Ti36      1.0  0.06127  0.42150  0.64312  1.0000
  Ti  Ti37      1.0  0.08959  0.25296  0.74461  1.0000
  Ti  Ti38      1.0  0.66716  0.26169  0.49289  1.0000
  Ti  Ti39      1.0  0.35445  0.25266  0.13177  1.0000
  Ti  Ti40      1.0  0.15404  0.59480  0.08460  1.0000
  Ti  Ti41      1.0  0.63309  0.55749  0.22828  1.0000
  Ti  Ti42      1.0  0.25945  0.83862  0.30740  1.0000
  Ti  Ti43      1.0  0.15862  0.92802  0.62766  1.0000
  Ti  Ti44      1.0  0.76108  0.69971  0.06560  1.0000
  Ti  Ti45      1.0  0.73016  0.36554  0.56907  1.0000
  Ti  Ti46      1.0  0.82381  0.08465  0.37459  1.0000
  Ti  Ti47      1.0  0.56959  0.28442  0.05626  1.0000
  Ti  Ti48      1.0  0.42152  0.50252  0.12699  1.0000
  Ti  Ti49      1.0  0.93909  0.81336  0.80610  1.0000
  Ti  Ti50      1.0  0.54585  0.12950  0.87830  1.0000
  Ti  Ti51      1.0  0.80538  0.99610  0.73439  1.0000
  Ti  Ti52      1.0  0.40873  0.39916  0.31267  1.0000
  Ti  Ti53      1.0  0.01272  0.80141  0.22144  1.0000
  Ti  Ti54      1.0  0.22874  0.10964  0.09227  1.0000
  Ti  Ti55      1.0  0.06168  0.85278  0.81554  1.0000
  Ti  Ti56      1.0  0.30549  0.64570  0.38839  1.0000
  Ti  Ti57      1.0  0.69649  0.28682  0.16229  1.0000
  Ti  Ti58      1.0  0.10026  0.95040  0.69423  1.0000
  Ti  Ti59      1.0  0.65416  0.11035  0.38945  1.0000
  Ti  Ti60      1.0  0.58436  0.69222  0.08734  1.0000
  Ti  Ti61      1.0  0.23147  0.84019  0.92573  1.0000
  Ti  Ti62      1.0  0.39400  0.16759  0.75959  1.0000
  Ti  Ti63      1.0  0.05962  0.35341  0.99103  1.0000
  Ti  Ti64      1.0  0.94857  0.46299  0.19720  1.0000
  Ti  Ti65      1.0  0.91812  0.15813  0.60279  1.0000
  Ti  Ti66      1.0  0.42188  0.38362  0.75678  1.0000
  Ti  Ti67      1.0  0.75569  0.71137  0.37083  1.0000
  Ti  Ti68      1.0  0.56444  0.96817  0.19185  1.0000
  Ti  Ti69      1.0  0.30166  0.50905  0.65846  1.0000
  Ti  Ti70      1.0  0.49539  0.95735  0.54875  1.0000
  Ti  Ti71      1.0  0.39362  0.87021  0.85593  1.0000
  Ti  Ti72      1.0  0.14511  0.79233  0.51480  1.0000
  Ti  Ti73      1.0  0.48024  0.52045  0.67173  1.0000
  Ti  Ti74      1.0  0.20272  0.26023  0.57553  1.0000
  Ti  Ti75      1.0  0.25265  0.32682  0.82425  1.0000
  Ti  Ti76      1.0  0.72001  0.52974  0.89523  1.0000
  Ti  Ti77      1.0  0.55068  0.64663  0.63202  1.0000
  Ti  Ti78      1.0  0.97132  0.24774  0.40937  1.0000
  Ti  Ti79      1.0  0.32297  0.94877  0.55447  1.0000
  Ti  Ti80      1.0  0.79249  0.44837  0.23537  1.0000
  Ti  Ti81      1.0  0.92984  0.97557  0.11725  1.0000
  Ti  Ti82      1.0  0.90917  0.74634  0.52099  1.0000
  Ti  Ti83      1.0  0.66625  0.45741  0.85601  1.0000
  Ti  Ti84      1.0  0.97321  0.45330  0.64242  1.0000
  Ti  Ti85      1.0  0.03038  0.28528  0.74632  1.0000
  Ti  Ti86      1.0  0.61433  0.29897  0.59130  1.0000
  Ti  Ti87      1.0  0.27926  0.26940  0.13272  1.0000
  Ti  Ti88      1.0  0.13029  0.55418  0.14376  1.0000
  Ti  Ti89      1.0  0.61903  0.56539  0.33189  1.0000
  Ti  Ti90      1.0  0.31682  0.75505  0.30073  1.0000
  Ti  Ti91      1.0  0.72519  0.32637  0.64424  1.0000
  Ti  Ti92      1.0  0.99727  0.05268  0.87062  1.0000
  Ti  Ti93      1.0  0.76958  0.67505  0.91496  1.0000
  Ti  Ti94      1.0  0.49642  0.49053  0.14422  1.0000
  Ti  Ti95      1.0  0.82060  0.03730  0.48506  1.0000
  Ti  Ti96      1.0  0.57921  0.28481  0.93447  1.0000
  I   I1        1.0  0.59366  0.09291  0.88151  1.0000
  I   I2        1.0  0.77071  0.03496  0.68462  1.0000
  I   I3        1.0  0.84638  0.89378  0.77754  1.0000
  I   I4        1.0  0.00449  0.78879  0.13932  1.0000
  I   I5        1.0  0.29654  0.00803  0.10788  1.0000
  I   I6        1.0  0.24354  0.14578  0.06525  1.0000
  I   I7        1.0  0.33889  0.62382  0.32220  1.0000
  I   I8        1.0  0.25801  0.66477  0.43611  1.0000
  I   I9        1.0  0.77069  0.26274  0.34898  1.0000
  I   I10       1.0  0.65675  0.14273  0.22449  1.0000
  I   I11       1.0  0.16326  0.60712  0.85848  1.0000
  I   I12       1.0  0.07048  0.70411  0.34063  1.0000
  I   I13       1.0  0.39370  0.17566  0.84696  1.0000
  I   I14       1.0  0.04108  0.31850  0.02269  1.0000
  I   I15       1.0  0.20584  0.85786  0.02481  1.0000
  I   I16       1.0  0.94507  0.10155  0.63215  1.0000
  I   I17       1.0  0.39101  0.42413  0.79630  1.0000
  I   I18       1.0  0.00325  0.43377  0.18794  1.0000
  I   I19       1.0  0.55571  0.98616  0.28087  1.0000
  I   I20       1.0  0.12014  0.65523  0.74463  1.0000
  I   I21       1.0  0.32899  0.46238  0.66585  1.0000
  I   I22       1.0  0.42743  0.89640  0.86605  1.0000
  I   I23       1.0  0.47735  0.85319  0.77973  1.0000
  I   I24       1.0  0.47546  0.99795  0.63109  1.0000
  I   I25       1.0  0.24311  0.22882  0.50689  1.0000
  I   I26       1.0  0.27848  0.35256  0.00742  1.0000
  I   I27       1.0  0.44749  0.49747  0.70496  1.0000
  I   I28       1.0  0.58633  0.59936  0.60033  1.0000
  I   I29       1.0  0.01637  0.21687  0.46598  1.0000
  I   I30       1.0  0.76468  0.54043  0.71118  1.0000
  I   I31       1.0  0.78474  0.44814  0.32054  1.0000
  I   I32       1.0  0.96888  0.98387  0.11286  1.0000
  I   I33       1.0  0.32079  0.96102  0.46929  1.0000
  I   I34       1.0  0.59425  0.50992  0.02556  1.0000
  I   I35       1.0  0.94720  0.43885  0.57434  1.0000
  I   I36       1.0  0.90723  0.78854  0.55203  1.0000
  I   I37       1.0  0.08337  0.23335  0.67021  1.0000
  I   I38       1.0  0.31829  0.25404  0.19987  1.0000
  I   I39       1.0  0.00464  0.29442  0.82420  1.0000
  I   I40       1.0  0.64544  0.59198  0.28065  1.0000
  I   I41       1.0  0.27692  0.79558  0.24552  1.0000
  I   I42       1.0  0.10043  0.55319  0.20600  1.0000
  I   I43       1.0  0.15043  0.89012  0.59880  1.0000
  I   I44       1.0  0.81130  0.65066  0.86584  1.0000
  I   I45       1.0  0.68379  0.38771  0.54220  1.0000
  I   I46       1.0  0.86616  0.05837  0.32986  1.0000
  I   I47       1.0  0.52567  0.29612  0.10370  1.0000
  I   I48       1.0  0.42991  0.49845  0.22271  1.0000
  I   I49       1.0  0.86574  0.82406  0.70897  1.0000
  I   I50       1.0  0.78359  0.01118  0.93105  1.0000
  I   I51       1.0  0.81324  0.98555  0.82663  1.0000
  I   I52       1.0  0.44587  0.41796  0.43741  1.0000
  I   I53       1.0  0.00210  0.77511  0.29609  1.0000
  I   I54       1.0  0.18323  0.13513  0.05494  1.0000
  I   I55       1.0  0.98429  0.91541  0.93466  1.0000
  I   I56       1.0  0.19908  0.68325  0.28386  1.0000
  I   I57       1.0  0.74485  0.24958  0.22769  1.0000
  I   I58       1.0  0.63033  0.11065  0.29069  1.0000
  I   I59       1.0  0.66034  0.14888  0.34818  1.0000
  I   I60       1.0  0.56340  0.67850  0.15079  1.0000
  I   I61       1.0  0.41464  0.11495  0.77321  1.0000
  I   I62       1.0  0.34385  0.18400  0.76541  1.0000
  I   I63       1.0  0.09163  0.31421  0.93325  1.0000
  I   I64       1.0  0.96189  0.03693  0.57292  1.0000
  I   I65       1.0  0.89033  0.20198  0.56532  1.0000
  I   I66       1.0  0.39643  0.37380  0.69476  1.0000
  I   I67       1.0  0.80466  0.69590  0.36460  1.0000
  I   I68       1.0  0.67805  0.92627  0.11090  1.0000
  I   I69       1.0  0.19873  0.52963  0.58059  1.0000
  I   I70       1.0  0.48560  0.93847  0.47165  1.0000
  I   I71       1.0  0.44556  0.83592  0.89297  1.0000
  I   I72       1.0  0.13024  0.76820  0.57046  1.0000
  I   I73       1.0  0.50661  0.50307  0.74761  1.0000
  I   I74       1.0  0.30214  0.32841  0.83216  1.0000
  I   I75       1.0  0.25118  0.34871  0.74783  1.0000
  I   I76       1.0  0.65010  0.58170  0.62997  1.0000
  I   I77       1.0  0.62005  0.56740  0.73758  1.0000
  I   I78       1.0  0.92169  0.27908  0.43866  1.0000
  I   I79       1.0  0.36551  0.94166  0.58794  1.0000
  I   I80       1.0  0.80415  0.35235  0.10414  1.0000
  I   I81       1.0  0.89765  0.03665  0.07139  1.0000
  I   I82       1.0  0.92768  0.72446  0.42102  1.0000
  I   I83       1.0  0.62748  0.53795  0.96061  1.0000
  I   I84       1.0  0.01836  0.45700  0.68733  1.0000
  I   I85       1.0  0.05232  0.30565  0.67800  1.0000
  I   I86       1.0  0.62187  0.27995  0.67294  1.0000
  I   I87       1.0  0.39510  0.23237  0.19327  1.0000
  I   I88       1.0  0.20709  0.57262  0.08665  1.0000
  I   I89       1.0  0.60774  0.60241  0.39043  1.0000
  I   I90       1.0  0.22012  0.86483  0.25537  1.0000
  I   I91       1.0  0.73639  0.31292  0.54993  1.0000
  I   I92       1.0  0.96921  0.07668  0.94156  1.0000
  I   I93       1.0  0.79300  0.65915  0.99773  1.0000
  I   I94       1.0  0.37096  0.54046  0.12845  1.0000
  I   I95       1.0  0.78679  0.02058  0.46247  1.0000
  I   I96       1.0  0.56663  0.24904  0.98683  1.0000
  I   I97       1.0  0.73127  0.84165  0.52997  1.0000
  I   I98       1.0  0.88861  0.82437  0.83172  1.0000
  I   I99       1.0  0.81306  0.03736  0.76700  1.0000
  I   I100      1.0  0.42472  0.48502  0.37303  1.0000
  I   I101      1.0  0.42070  0.35395  0.33727  1.0000
  I   I102      1.0  0.05532  0.75459  0.23970  1.0000
  I   I103      1.0  0.08997  0.80665  0.82932  1.0000
  I   I104      1.0  0.04608  0.86043  0.91294  1.0000
  I   I105      1.0  0.65258  0.32436  0.13624  1.0000
  I   I106      1.0  0.63958  0.75176  0.02139  1.0000
  I   I107      1.0  0.60754  0.21207  0.28192  1.0000
  I   I108      1.0  0.61213  0.70627  0.15917  1.0000
  I   I109      1.0  0.24746  0.91111  0.92908  1.0000
  I   I110      1.0  0.40035  0.14996  0.65920  1.0000
  I   I111      1.0  0.09878  0.24411  0.97576  1.0000
  I   I112      1.0  0.93922  0.51265  0.20023  1.0000
  I   I113      1.0  0.92748  0.13162  0.51344  1.0000
  I   I114      1.0  0.09239  0.54506  0.07765  1.0000
  I   I115      1.0  0.67209  0.73777  0.34129  1.0000
  I   I116      1.0  0.75501  0.66764  0.36241  1.0000
  I   I117      1.0  0.51894  0.00531  0.18394  1.0000
  I   I118      1.0  0.42678  0.98795  0.53789  1.0000
  I   I119      1.0  0.37931  0.00425  0.42673  1.0000
  I   I120      1.0  0.11050  0.80453  0.44671  1.0000
  I   I121      1.0  0.39959  0.52707  0.61775  1.0000
  I   I122      1.0  0.15419  0.28086  0.60834  1.0000
  I   I123      1.0  0.31732  0.36823  0.91239  1.0000
  I   I124      1.0  0.74808  0.55208  0.87471  1.0000
  I   I125      1.0  0.55705  0.61625  0.71813  1.0000
  I   I126      1.0  0.96322  0.26574  0.32445  1.0000
  I   I127      1.0  0.25790  0.92539  0.66968  1.0000
  I   I128      1.0  0.74991  0.41009  0.09451  1.0000
  I   I129      1.0  0.92425  0.97366  0.02108  1.0000
  I   I130      1.0  0.07957  0.42894  0.56361  1.0000
  I   I131      1.0  0.94332  0.78273  0.38961  1.0000
  I   I132      1.0  0.70071  0.45263  0.91336  1.0000
  I   I133      1.0  0.39205  0.22483  0.06947  1.0000
  I   I134      1.0  0.65640  0.23681  0.42798  1.0000
  I   I135      1.0  0.71290  0.25685  0.46399  1.0000
  I   I136      1.0  0.28813  0.85885  0.32674  1.0000
  I   I137      1.0  0.16436  0.53769  0.07637  1.0000
  I   I138      1.0  0.61807  0.58276  0.14782  1.0000
  I   I139      1.0  0.77115  0.33482  0.62221  1.0000
  I   I140      1.0  0.03027  0.00513  0.88329  1.0000
  I   I141      1.0  0.77375  0.71781  0.88707  1.0000
  I   I142      1.0  0.44365  0.53403  0.12143  1.0000
  I   I143      1.0  0.85567  0.05565  0.45101  1.0000
  I   I144      1.0  0.58491  0.31828  0.05688  1.0000
  I   I145      1.0  0.93093  0.85812  0.78198  1.0000
  I   I146      1.0  0.74049  0.04802  0.82259  1.0000
  I   I147      1.0  0.77610  0.84446  0.63730  1.0000
  I   I148      1.0  0.36386  0.41705  0.36096  1.0000
  I   I149      1.0  0.03185  0.83014  0.18241  1.0000
  I   I150      1.0  0.19630  0.08203  0.13898  1.0000
  I   I151      1.0  0.08027  0.86667  0.72937  1.0000
  I   I152      1.0  0.32211  0.59883  0.43220  1.0000
  I   I153      1.0  0.76544  0.32664  0.28815  1.0000
  I   I154      1.0  0.11753  0.91591  0.75618  1.0000
  I   I155      1.0  0.19732  0.61590  0.74309  1.0000
  I   I156      1.0  0.66153  0.74378  0.15592  1.0000
  I   I157      1.0  0.25134  0.82957  0.84264  1.0000
  I   I158      1.0  0.01363  0.39214  0.00956  1.0000
  I   I159      1.0  0.24052  0.79267  0.94598  1.0000
  I   I160      1.0  0.99149  0.38054  0.24713  1.0000
  I   I161      1.0  0.08082  0.48651  0.07232  1.0000
  I   I162      1.0  0.95809  0.45795  0.29103  1.0000
  I   I163      1.0  0.72420  0.72015  0.45273  1.0000
  I   I164      1.0  0.62475  0.93325  0.23478  1.0000
  I   I165      1.0  0.28083  0.50014  0.55264  1.0000
  I   I166      1.0  0.48268  0.92850  0.60809  1.0000
  I   I167      1.0  0.52075  0.81608  0.88182  1.0000
  I   I168      1.0  0.49893  0.05575  0.51595  1.0000
  I   I169      1.0  0.19034  0.21153  0.54770  1.0000
  I   I170      1.0  0.23938  0.19131  0.40728  1.0000
  I   I171      1.0  0.44934  0.54124  0.55834  1.0000
  I   I172      1.0  0.72596  0.52027  0.98665  1.0000
  I   I173      1.0  0.95803  0.21301  0.38703  1.0000
  I   I174      1.0  0.79203  0.47496  0.74285  1.0000
  I   I175      1.0  0.83435  0.45212  0.23427  1.0000
  I   I176      1.0  0.89887  0.99557  0.18806  1.0000
  I   I177      1.0  0.28301  0.99248  0.59444  1.0000
  I   I178      1.0  0.01352  0.72908  0.46199  1.0000
  I   I179      1.0  0.56490  0.54274  0.91957  1.0000
  I   I180      1.0  0.06081  0.37585  0.64613  1.0000
  I   I181      1.0  0.12817  0.21219  0.77948  1.0000
  I   I182      1.0  0.59515  0.34985  0.59613  1.0000
  I   I183      1.0  0.35652  0.29654  0.12587  1.0000
  I   I184      1.0  0.14383  0.59811  0.99445  1.0000
  I   I185      1.0  0.68168  0.52984  0.20103  1.0000
  I   I186      1.0  0.31961  0.73735  0.21737  1.0000
  I   I187      1.0  0.97192  0.05341  0.79840  1.0000
  I   I188      1.0  0.73299  0.70445  0.97824  1.0000
  I   I189      1.0  0.70989  0.36845  0.68408  1.0000
  I   I190      1.0  0.80679  0.13629  0.38749  1.0000
  I   I191      1.0  0.58814  0.25655  0.85766  1.0000
  I   I192      1.0  0.52706  0.45085  0.18647  1.0000
  I   I193      1.0  0.96338  0.76072  0.80748  1.0000
  I   I194      1.0  0.52719  0.10286  0.92769  1.0000
  I   I195      1.0  0.69384  0.87996  0.64424  1.0000
  I   I196      1.0  0.46499  0.38996  0.31555  1.0000
  I   I197      1.0  0.11028  0.96887  0.60064  1.0000
  I   I198      1.0  0.24981  0.06530  0.04410  1.0000
  I   I199      1.0  0.04387  0.93873  0.94190  1.0000
  I   I200      1.0  0.31314  0.67869  0.43813  1.0000
  I   I201      1.0  0.80859  0.25090  0.22191  1.0000
  I   I202      1.0  0.68410  0.06254  0.36995  1.0000
  I   I203      1.0  0.25584  0.51389  0.69132  1.0000
  I   I204      1.0  0.61577  0.64457  0.06328  1.0000
  I   I205      1.0  0.43645  0.20448  0.60941  1.0000
  I   I206      1.0  0.08172  0.35024  0.07223  1.0000
  I   I207      1.0  0.26570  0.85039  0.96240  1.0000
  I   I208      1.0  0.97197  0.06301  0.46510  1.0000
  I   I209      1.0  0.15495  0.46404  0.03268  1.0000
  I   I210      1.0  0.05151  0.40408  0.28689  1.0000
  I   I211      1.0  0.74010  0.75907  0.39608  1.0000
  I   I212      1.0  0.65128  0.97640  0.21663  1.0000
  I   I213      1.0  0.21937  0.56609  0.51250  1.0000
  I   I214      1.0  0.43749  0.93232  0.40077  1.0000
  I   I215      1.0  0.35116  0.90827  0.87725  1.0000
  I   I216      1.0  0.42422  0.07516  0.56210  1.0000
  I   I217      1.0  0.17885  0.27766  0.48502  1.0000
  I   I218      1.0  0.34204  0.29158  0.93710  1.0000
  I   I219      1.0  0.50448  0.48318  0.60716  1.0000
  I   I220      1.0  0.52997  0.64577  0.54994  1.0000
  I   I221      1.0  0.98432  0.28821  0.41224  1.0000
  I   I222      1.0  0.80445  0.52179  0.81526  1.0000
  I   I223      1.0  0.75269  0.43732  0.20872  1.0000
  I   I224      1.0  0.82709  0.03964  0.08883  1.0000
  I   I225      1.0  0.21856  0.99340  0.61151  1.0000
  I   I226      1.0  0.96550  0.71670  0.52395  1.0000
  I   I227      1.0  0.63363  0.50780  0.84056  1.0000
  I   I228      1.0  0.93456  0.49682  0.66027  1.0000
  I   I229      1.0  0.06883  0.29223  0.80254  1.0000
  I   I230      1.0  0.68379  0.22614  0.55750  1.0000
  I   I231      1.0  0.24262  0.31531  0.11621  1.0000
  I   I232      1.0  0.14982  0.64208  0.07458  1.0000
  I   I233      1.0  0.58184  0.58665  0.26992  1.0000
  I   I234      1.0  0.28898  0.73465  0.32540  1.0000
  I   I235      1.0  0.17081  0.95257  0.55980  1.0000
  I   I236      1.0  0.73365  0.74922  0.08644  1.0000
  I   I237      1.0  0.75552  0.35797  0.48958  1.0000
  I   I238      1.0  0.79661  0.06288  0.55091  1.0000
  I   I239      1.0  0.53027  0.31875  0.96995  1.0000
  I   I240      1.0  0.49845  0.52064  0.20612  1.0000
  I   I241      1.0  0.88805  0.86083  0.64897  1.0000
  I   I242      1.0  0.77996  0.07991  0.88818  1.0000
  I   I243      1.0  0.75230  0.79059  0.64852  1.0000
  I   I244      1.0  0.48779  0.44182  0.34525  1.0000
  I   I245      1.0  0.09670  0.75641  0.32894  1.0000
  I   I246      1.0  0.24703  0.01691  0.20457  1.0000
  I   I247      1.0  0.07212  0.89282  0.83885  1.0000
  I   I248      1.0  0.21886  0.62182  0.38159  1.0000
  I   I249      1.0  0.67594  0.28531  0.24285  1.0000
  I   I250      1.0  0.58265  0.16488  0.23502  1.0000
  I   I251      1.0  0.16155  0.57350  0.71574  1.0000
  I   I252      1.0  0.55669  0.70131  0.02029  1.0000
  I   I253      1.0  0.40205  0.20752  0.72831  1.0000
  I   I254      1.0  0.10556  0.26713  0.10848  1.0000
  I   I255      1.0  0.19213  0.88817  0.88636  1.0000
  I   I256      1.0  0.96625  0.15032  0.63679  1.0000
  I   I257      1.0  0.12386  0.45085  0.15413  1.0000
  I   I258      1.0  0.95261  0.45711  0.10196  1.0000
  I   I259      1.0  0.65846  0.77915  0.47202  1.0000
  I   I260      1.0  0.59801  0.94802  0.10857  1.0000
  I   I261      1.0  0.25787  0.57134  0.60686  1.0000
  I   I262      1.0  0.44242  0.00240  0.39731  1.0000
  I   I263      1.0  0.50400  0.88390  0.90035  1.0000
  I   I264      1.0  0.47384  0.06047  0.65176  1.0000
  I   I265      1.0  0.16114  0.23255  0.41910  1.0000
  I   I266      1.0  0.25006  0.28593  0.79815  1.0000
  I   I267      1.0  0.46563  0.45528  0.57987  1.0000
  I   I268      1.0  0.51512  0.69131  0.66369  1.0000
  I   I269      1.0  0.96215  0.24831  0.55320  1.0000
  I   I270      1.0  0.76544  0.48474  0.87696  1.0000
  I   I271      1.0  0.81614  0.38618  0.23939  1.0000
  I   I272      1.0  0.85801  0.03211  0.96237  1.0000
  I   I273      1.0  0.25752  0.93209  0.52978  1.0000
  I   I274      1.0  0.91430  0.71832  0.59023  1.0000
  I   I275      1.0  0.61741  0.46291  0.90571  1.0000
  I   I276      1.0  0.01590  0.44298  0.57834  1.0000
  I   I277      1.0  0.13163  0.26261  0.73411  1.0000
  I   I278      1.0  0.61759  0.29930  0.48698  1.0000
  I   I279      1.0  0.26198  0.24682  0.07366  1.0000
  I   I280      1.0  0.15807  0.56758  0.19944  1.0000
  I   I281      1.0  0.61549  0.52763  0.20397  1.0000
  I   I282      1.0  0.23590  0.84881  0.39193  1.0000
  I   I283      1.0  0.20972  0.90217  0.64936  1.0000
  I   I284      1.0  0.79554  0.68453  0.12633  1.0000
  I   I285      1.0  0.73275  0.40632  0.60114  1.0000
  I   I286      1.0  0.80845  0.10115  0.28363  1.0000
  I   I287      1.0  0.59309  0.31459  0.89476  1.0000
  I   I288      1.0  0.40195  0.47861  0.06785  1.0000
  I   I289      1.0  0.92786  0.80700  0.71390  1.0000
  I   I290      1.0  0.52957  0.13406  0.78979  1.0000
  I   I291      1.0  0.84667  0.98130  0.68145  1.0000
  I   I292      1.0  0.39066  0.39118  0.23333  1.0000
  I   I293      1.0  0.96976  0.83533  0.24310  1.0000
  I   I294      1.0  0.27639  0.06235  0.17747  1.0000
  I   I295      1.0  0.99856  0.95023  0.82676  1.0000
  I   I296      1.0  0.26636  0.65980  0.30888  1.0000
  I   I297      1.0  0.70259  0.26261  0.08414  1.0000
  I   I298      1.0  0.06375  0.94219  0.66367  1.0000
  I   I299      1.0  0.61540  0.11533  0.43400  1.0000
  I   I300      1.0  0.61999  0.70525  0.03955  1.0000
  I   I301      1.0  0.23113  0.90257  0.07001  1.0000
  I   I302      1.0  0.45671  0.13477  0.58603  1.0000
  I   I303      1.0  0.14280  0.26899  0.01707  1.0000
  I   I304      1.0  0.99956  0.39450  0.36792  1.0000
  I   I305      1.0  0.01336  0.07316  0.55093  1.0000
  I   I306      1.0  0.43999  0.35274  0.82856  1.0000
  I   I307      1.0  0.67079  0.80067  0.34290  1.0000
  I   I308      1.0  0.59173  0.99923  0.16897  1.0000
  I   I309      1.0  0.32917  0.52321  0.60901  1.0000
  I   I310      1.0  0.54338  0.93027  0.53633  1.0000
  I   I311      1.0  0.39227  0.87271  0.76572  1.0000
  I   I312      1.0  0.15380  0.82392  0.56698  1.0000
  I   I313      1.0  0.44158  0.56254  0.69871  1.0000
  I   I314      1.0  0.21574  0.29570  0.55965  1.0000
  I   I315      1.0  0.27072  0.30901  0.91911  1.0000
  I   I316      1.0  0.71701  0.52095  0.79794  1.0000
  I   I317      1.0  0.58488  0.65995  0.61672  1.0000
  I   I318      1.0  0.02499  0.26850  0.55428  1.0000
  I   I319      1.0  0.31396  0.93484  0.64849  1.0000
  I   I320      1.0  0.81939  0.41392  0.11082  1.0000
  I   I321      1.0  0.87533  0.97184  0.10571  1.0000
  I   I322      1.0  0.86490  0.75493  0.48703  1.0000
  I   I323      1.0  0.69461  0.45363  0.78143  1.0000
  I   I324      1.0  0.96836  0.42250  0.70492  1.0000
  I   I325      1.0  0.99244  0.29589  0.68887  1.0000
  I   I326      1.0  0.57800  0.28998  0.57423  1.0000
  I   I327      1.0  0.25251  0.26157  0.20211  1.0000
  I   I328      1.0  0.15337  0.49750  0.16900  1.0000
  I   I329      1.0  0.59485  0.54676  0.38008  1.0000
  I   I330      1.0  0.29991  0.79252  0.36176  1.0000
  I   I331      1.0  0.67712  0.33046  0.64538  1.0000
  I   I332      1.0  0.15153  0.95273  0.72291  1.0000
  I   I333      1.0  0.74026  0.65244  0.89600  1.0000
  I   I334      1.0  0.52135  0.50010  0.07488  1.0000
  I   I335      1.0  0.86148  0.99229  0.50256  1.0000
  I   I336      1.0  0.59582  0.24759  0.12380  1.0000
  I   I337      1.0  0.96900  0.81157  0.86804  1.0000
  I   I338      1.0  0.51611  0.17787  0.90764  1.0000
  I   I339      1.0  0.79425  0.96361  0.70218  1.0000
  I   I340      1.0  0.39897  0.44837  0.31303  1.0000
  I   I341      1.0  0.02763  0.79374  0.39469  1.0000
  I   I342      1.0  0.22028  0.13469  0.16977  1.0000
  I   I343      1.0  0.01999  0.85900  0.77833  1.0000
  I   I344      1.0  0.18928  0.68825  0.43132  1.0000
  I   I345      1.0  0.73003  0.30871  0.19494  1.0000
  I   I346      1.0  0.06325  0.99177  0.73937  1.0000
  I   I347      1.0  0.68016  0.11092  0.46216  1.0000
  I   I348      1.0  0.58977  0.77588  0.12819  1.0000
  I   I349      1.0  0.17245  0.93644  0.98205  1.0000
  I   I350      1.0  0.47441  0.13910  0.71486  1.0000
  I   I351      1.0  0.07515  0.37732  0.92650  1.0000
  I   I352      1.0  0.91005  0.45843  0.22365  1.0000
  I   I353      1.0  0.88602  0.16228  0.66960  1.0000
  I   I354      1.0  0.45493  0.39212  0.70497  1.0000
  I   I355      1.0  0.74054  0.72415  0.28135  1.0000
  I   I356      1.0  0.55183  0.93062  0.20021  1.0000
  I   I357      1.0  0.30907  0.52420  0.73510  1.0000
  I   I358      1.0  0.48838  0.99978  0.50428  1.0000
  I   I359      1.0  0.38904  0.83037  0.86702  1.0000
  I   I360      1.0  0.19040  0.75622  0.49860  1.0000
  I   I361      1.0  0.50720  0.54310  0.62317  1.0000
  I   I362      1.0  0.22032  0.23150  0.64757  1.0000
  I   I363      1.0  0.20727  0.36568  0.84946  1.0000
  I   I364      1.0  0.67372  0.56902  0.88744  1.0000
  I   I365      1.0  0.63206  0.62918  0.74688  1.0000
  I   I366      1.0  0.95217  0.31243  0.53092  1.0000
  I   I367      1.0  0.33867  0.90045  0.53449  1.0000
  I   I368      1.0  0.76689  0.49454  0.20536  1.0000
  I   I369      1.0  0.95876  0.92983  0.14942  1.0000
  I   I370      1.0  0.99374  0.69848  0.37044  1.0000
  I   I371      1.0  0.68857  0.40486  0.84508  1.0000
  I   I372      1.0  0.09342  0.42015  0.70548  1.0000
  I   I373      1.0  0.04720  0.23662  0.78164  1.0000
  I   I374      1.0  0.65961  0.30178  0.55342  1.0000
  I   I375      1.0  0.32013  0.26340  0.06935  1.0000
  I   I376      1.0  0.10647  0.59991  0.10428  1.0000
  I   I377      1.0  0.66981  0.52676  0.34140  1.0000
  I   I378      1.0  0.36617  0.74956  0.31117  1.0000
  I   I379      1.0  0.75251  0.28322  0.69645  1.0000
  I   I380      1.0  0.02215  0.07814  0.84450  1.0000
  I   I381      1.0  0.74088  0.67133  0.10494  1.0000
  I   I382      1.0  0.46885  0.46970  0.08054  1.0000
  I   I383      1.0  0.78958  0.06513  0.40507  1.0000
  I   I384      1.0  0.61723  0.25210  0.99479  1.0000
