data_image0
_chemical_formula_structural       Ti96I384
_chemical_formula_sum              "Ti96 I384"
_cell_length_a       65.3745
_cell_length_b       65.0837
_cell_length_c       31.7873
_cell_angle_alpha    88.7757
_cell_angle_beta     88.7757
_cell_angle_gamma    62.1586

_space_group_name_H-M_alt    "P 1"
_space_group_IT_number       1

loop_
  _space_group_symop_operation_xyz
  'x, y, z'

loop_
  _atom_site_type_symbol
  _atom_site_label
  _atom_site_symmetry_multiplicity
  _atom_site_fract_x
  _atom_site_fract_y
  _atom_site_fract_z
  _atom_site_occupancy
  Ti  Ti1       1.0  0.55300  0.85900  0.64611  1.0000
  Ti  Ti2       1.0  0.36427  0.11984  0.30846  1.0000
  Ti  Ti3       1.0  0.95589  0.66979  0.27593  1.0000
  Ti  Ti4       1.0  0.03012  0.02823  0.97812  1.0000
  Ti  Ti5       1.0  0.95285  0.79990  0.66999  1.0000
  Ti  Ti6       1.0  0.43809  0.24721  0.88432  1.0000
  Ti  Ti7       1.0  0.84908  0.01960  0.19021  1.0000
  Ti  Ti8       1.0  0.48559  0.17762  0.20510  1.0000
  Ti  Ti9       1.0  0.27047  0.79795  0.53285  1.0000
  Ti  Ti10      1.0  0.70036  0.89851  0.13883  1.0000
  Ti  Ti11      1.0  0.09840  0.52559  0.70460  1.0000
  Ti  Ti12      1.0  0.10890  0.62627  0.39031  1.0000
  Ti  Ti13      1.0  0.19379  0.23623  0.61093  1.0000
  Ti  Ti14      1.0  0.07015  0.06345  0.40736  1.0000
  Ti  Ti15      1.0  0.61502  0.25300  0.73012  1.0000
  Ti  Ti16      1.0  0.63982  0.88443  0.76846  1.0000
  Ti  Ti17      1.0  0.34159  0.14453  0.60760  1.0000
  Ti  Ti18      1.0  0.11599  0.62770  0.02147  1.0000
  Ti  Ti19      1.0  0.54467  0.83295  0.37995  1.0000
  Ti  Ti20      1.0  0.44289  0.98456  0.74856  1.0000
  Ti  Ti21      1.0  0.18062  0.04298  0.90974  1.0000
  Ti  Ti22      1.0  0.63728  0.41145  0.59557  1.0000
  Ti  Ti23      1.0  0.59112  0.07269  0.42313  1.0000
  Ti  Ti24      1.0  0.96655  0.94545  0.37266  1.0000
  Ti  Ti25      1.0  0.68641  0.75152  0.11031  1.0000
  Ti  Ti26      1.0  0.46755  0.90151  0.99775  1.0000
  Ti  Ti27      1.0  0.03568  0.78815  0.33571  1.0000
  Ti  Ti28      1.0  0.61753  0.33650  0.06967  1.0000
  Ti  Ti29      1.0  0.80752  0.95182  0.50331  1.0000
  Ti  Ti30      1.0  0.83432  0.26544  0.30936  1.0000
  Ti  Ti31      1.0  0.77812  0.26510  0.63621  1.0000
  Ti  Ti32      1.0  0.67136  0.23472  0.26164  1.0000
  Ti  Ti33      1.0  0.37480  0.88044  0.82597  1.0000
  Ti  Ti34      1.0  0.57045  0.46886  0.94161  1.0000
  Ti  Ti35      1.0  0.77353  0.49497  0.53392  1.0000
  Ti  Ti36      1.0  0.87429  0.58112  0.45609  1.0000
  Ti  Ti37      1.0  0.98739  0.38008  0.33095  1.0000
  Ti  Ti38      1.0  0.51268  0.32854  0.00463  1.0000
  Ti  Ti39      1.0  0.00297  0.92368  0.61446  1.0000
  Ti  Ti40      1.0  0.16687  0.08625  0.17019  1.0000
  Ti  Ti41      1.0  0.58650  0.62963  0.06842  1.0000
  Ti  Ti42      1.0  0.92421  0.28469  0.10756  1.0000
  Ti  Ti43      1.0  0.68989  0.15351  0.42645  1.0000
  Ti  Ti44      1.0  0.81295  0.54277  0.15347  1.0000
  Ti  Ti45      1.0  0.41326  0.57613  0.58310  1.0000
  Ti  Ti46      1.0  0.28416  0.47353  0.19410  1.0000
  Ti  Ti47      1.0  0.09279  0.48841  0.07171  1.0000
  Ti  Ti48      1.0  0.49129  0.71962  0.56881  1.0000
  Ti  Ti49      1.0  0.58964  0.79372  0.76055  1.0000
  Ti  Ti50      1.0  0.03290  0.18777  0.29324  1.0000
  Ti  Ti51      1.0  0.42709  0.10370  0.29034  1.0000
  Ti  Ti52      1.0  0.05840  0.95999  0.95234  1.0000
  Ti  Ti53      1.0  0.19545  0.61312  0.59949  1.0000
  Ti  Ti54      1.0  0.49406  0.20171  0.88591  1.0000
  Ti  Ti55      1.0  0.84062  0.98425  0.09858  1.0000
  Ti  Ti56      1.0  0.42194  0.23188  0.26375  1.0000
  Ti  Ti57      1.0  0.33399  0.74098  0.48395  1.0000
  Ti  Ti58      1.0  0.67076  0.16810  0.54574  1.0000
  Ti  Ti59      1.0  0.63485  0.94329  0.01480  1.0000
  Ti  Ti60      1.0  0.06611  0.62986  0.44927  1.0000
  Ti  Ti61      1.0  0.60125  0.29817  0.81469  1.0000
  Ti  Ti62      1.0  0.22792  0.17469  0.53418  1.0000
  Ti  Ti63      1.0  0.11919  0.01496  0.44407  1.0000
  Ti  Ti64      1.0  0.12447  0.65210  0.92822  1.0000
  Ti  Ti65      1.0  0.12951  0.34033  0.75486  1.0000
  Ti  Ti66      1.0  0.47849  0.35437  0.24371  1.0000
  Ti  Ti67      1.0  0.57786  0.77305  0.32657  1.0000
  Ti  Ti68      1.0  0.08442  0.34171  0.98710  1.0000
  Ti  Ti69      1.0  0.14642  0.09877  0.96602  1.0000
  Ti  Ti70      1.0  0.60038  0.42733  0.51479  1.0000
  Ti  Ti71      1.0  0.62603  0.05590  0.51375  1.0000
  Ti  Ti72      1.0  0.13517  0.95460  0.18936  1.0000
  Ti  Ti73      1.0  0.07541  0.81141  0.25082  1.0000
  Ti  Ti74      1.0  0.68619  0.78548  0.04922  1.0000
  Ti  Ti75      1.0  0.41112  0.96826  0.00091  1.0000
  Ti  Ti76      1.0  0.77652  0.29010  0.37917  1.0000
  Ti  Ti77      1.0  0.65838  0.37950  0.07769  1.0000
  Ti  Ti78      1.0  0.80648  0.01040  0.45278  1.0000
  Ti  Ti79      1.0  0.49742  0.41929  0.79634  1.0000
  Ti  Ti80      1.0  0.80755  0.18716  0.59678  1.0000
  Ti  Ti81      1.0  0.65180  0.29043  0.27321  1.0000
  Ti  Ti82      1.0  0.53036  0.52379  0.91545  1.0000
  Ti  Ti83      1.0  0.73886  0.55538  0.54606  1.0000
  Ti  Ti84      1.0  0.85478  0.55788  0.39436  1.0000
  Ti  Ti85      1.0  0.98415  0.35301  0.22047  1.0000
  Ti  Ti86      1.0  0.49521  0.33921  0.12956  1.0000
  Ti  Ti87      1.0  0.93975  0.92846  0.61317  1.0000
  Ti  Ti88      1.0  0.56835  0.91655  0.19402  1.0000
  Ti  Ti89      1.0  0.59061  0.68807  0.11330  1.0000
  Ti  Ti90      1.0  0.87499  0.28764  0.01520  1.0000
  Ti  Ti91      1.0  0.42577  0.60827  0.68436  1.0000
  Ti  Ti92      1.0  0.75539  0.05215  0.72551  1.0000
  Ti  Ti93      1.0  0.78225  0.57853  0.08723  1.0000
  Ti  Ti94      1.0  0.52048  0.70774  0.48960  1.0000
  Ti  Ti95      1.0  0.33727  0.46228  0.27272  1.0000
  Ti  Ti96      1.0  0.05063  0.51252  0.99061  1.0000
  I   I1        1.0  0.04625  0.55315  0.97463  1.0000
  I   I2        1.0  0.38903  0.14929  0.30154  1.0000
  I   I3        1.0  0.56004  0.78100  0.78805  1.0000
  I   I4        1.0  0.16551  0.61185  0.54967  1.0000
  I   I5        1.0  0.43198  0.26922  0.95743  1.0000
  I   I6        1.0  0.50346  0.17776  0.95841  1.0000
  I   I7        1.0  0.49910  0.16613  0.12416  1.0000
  I   I8        1.0  0.46973  0.20665  0.27593  1.0000
  I   I9        1.0  0.28709  0.79023  0.60815  1.0000
  I   I10       1.0  0.69719  0.87557  0.20253  1.0000
  I   I11       1.0  0.07722  0.51014  0.65658  1.0000
  I   I12       1.0  0.93000  0.78981  0.73339  1.0000
  I   I13       1.0  0.20122  0.18235  0.47601  1.0000
  I   I14       1.0  0.12247  0.99992  0.52784  1.0000
  I   I15       1.0  0.65557  0.21375  0.73681  1.0000
  I   I16       1.0  0.67033  0.84173  0.76853  1.0000
  I   I17       1.0  0.49060  0.31861  0.29691  1.0000
  I   I18       1.0  0.12103  0.66878  0.02586  1.0000
  I   I19       1.0  0.48339  0.98343  0.73201  1.0000
  I   I20       1.0  0.14222  0.49300  0.71819  1.0000
  I   I21       1.0  0.17310  0.00689  0.89775  1.0000
  I   I22       1.0  0.55073  0.09643  0.45854  1.0000
  I   I23       1.0  0.59972  0.08180  0.34581  1.0000
  I   I24       1.0  0.57396  0.47044  0.50150  1.0000
  I   I25       1.0  0.69831  0.81764  0.07322  1.0000
  I   I26       1.0  0.45097  0.93701  0.06017  1.0000
  I   I27       1.0  0.06084  0.74385  0.31122  1.0000
  I   I28       1.0  0.65170  0.41771  0.11427  1.0000
  I   I29       1.0  0.81427  0.04767  0.46136  1.0000
  I   I30       1.0  0.74454  0.32175  0.33344  1.0000
  I   I31       1.0  0.78307  0.16655  0.62290  1.0000
  I   I32       1.0  0.68343  0.30392  0.28835  1.0000
  I   I33       1.0  0.50376  0.40226  0.87354  1.0000
  I   I34       1.0  0.75569  0.57112  0.62553  1.0000
  I   I35       1.0  0.86482  0.54285  0.47083  1.0000
  I   I36       1.0  0.55754  0.45184  0.00966  1.0000
  I   I37       1.0  0.96331  0.32913  0.22538  1.0000
  I   I38       1.0  0.98419  0.89416  0.61928  1.0000
  I   I39       1.0  0.01334  0.33883  0.28477  1.0000
  I   I40       1.0  0.56110  0.72958  0.13250  1.0000
  I   I41       1.0  0.89010  0.25413  0.96397  1.0000
  I   I42       1.0  0.16696  0.04809  0.16293  1.0000
  I   I43       1.0  0.63154  0.19399  0.59369  1.0000
  I   I44       1.0  0.76045  0.55588  0.05179  1.0000
  I   I45       1.0  0.44149  0.64076  0.68085  1.0000
  I   I46       1.0  0.32938  0.45018  0.18284  1.0000
  I   I47       1.0  0.10186  0.47392  0.15095  1.0000
  I   I48       1.0  0.53761  0.69309  0.41449  1.0000
  I   I49       1.0  0.60600  0.81723  0.80410  1.0000
  I   I50       1.0  0.32556  0.15029  0.27715  1.0000
  I   I51       1.0  0.35987  0.08144  0.32294  1.0000
  I   I52       1.0  0.01099  0.07134  0.94378  1.0000
  I   I53       1.0  0.16875  0.63112  0.66300  1.0000
  I   I54       1.0  0.53431  0.18038  0.85373  1.0000
  I   I55       1.0  0.81687  0.03588  0.11552  1.0000
  I   I56       1.0  0.39427  0.26207  0.19632  1.0000
  I   I57       1.0  0.36236  0.70024  0.51471  1.0000
  I   I58       1.0  0.71870  0.86625  0.08832  1.0000
  I   I59       1.0  0.60345  0.95351  0.95744  1.0000
  I   I60       1.0  0.13621  0.59426  0.44935  1.0000
  I   I61       1.0  0.26656  0.16953  0.48836  1.0000
  I   I62       1.0  0.21879  0.22446  0.53253  1.0000
  I   I63       1.0  0.10302  0.02856  0.36141  1.0000
  I   I64       1.0  0.63254  0.88886  0.68389  1.0000
  I   I65       1.0  0.12200  0.34559  0.67383  1.0000
  I   I66       1.0  0.43487  0.36529  0.24052  1.0000
  I   I67       1.0  0.50319  0.83711  0.38604  1.0000
  I   I68       1.0  0.46080  0.94679  0.79981  1.0000
  I   I69       1.0  0.10115  0.12963  0.96703  1.0000
  I   I70       1.0  0.62151  0.38155  0.55277  1.0000
  I   I71       1.0  0.61050  0.09725  0.48155  1.0000
  I   I72       1.0  0.11341  0.95481  0.26462  1.0000
  I   I73       1.0  0.11897  0.80023  0.26517  1.0000
  I   I74       1.0  0.41810  0.92818  0.96265  1.0000
  I   I75       1.0  0.43529  0.98820  0.96826  1.0000
  I   I76       1.0  0.57226  0.36651  0.04852  1.0000
  I   I77       1.0  0.67129  0.38301  0.99615  1.0000
  I   I78       1.0  0.79402  0.01950  0.37076  1.0000
  I   I79       1.0  0.41517  0.87550  0.84413  1.0000
  I   I80       1.0  0.77030  0.24783  0.71433  1.0000
  I   I81       1.0  0.68759  0.26451  0.21598  1.0000
  I   I82       1.0  0.51101  0.53386  0.99149  1.0000
  I   I83       1.0  0.78473  0.53456  0.53938  1.0000
  I   I84       1.0  0.92014  0.55228  0.44755  1.0000
  I   I85       1.0  0.98030  0.39520  0.24178  1.0000
  I   I86       1.0  0.53884  0.30759  0.09189  1.0000
  I   I87       1.0  0.02735  0.94288  0.64923  1.0000
  I   I88       1.0  0.12367  0.10407  0.15155  1.0000
  I   I89       1.0  0.62428  0.63455  0.10571  1.0000
  I   I90       1.0  0.86926  0.31996  0.96318  1.0000
  I   I91       1.0  0.41442  0.61417  0.76162  1.0000
  I   I92       1.0  0.74221  0.06753  0.65162  1.0000
  I   I93       1.0  0.84124  0.54143  0.08987  1.0000
  I   I94       1.0  0.50223  0.74517  0.62127  1.0000
  I   I95       1.0  0.30415  0.50440  0.22564  1.0000
  I   I96       1.0  0.03370  0.49353  0.93382  1.0000
  I   I97       1.0  0.97035  0.66799  0.19706  1.0000
  I   I98       1.0  0.54285  0.84513  0.71783  1.0000
  I   I99       1.0  0.35273  0.12638  0.38601  1.0000
  I   I100      1.0  0.00079  0.03406  0.04179  1.0000
  I   I101      1.0  0.02171  0.95721  0.98209  1.0000
  I   I102      1.0  0.96245  0.76151  0.62206  1.0000
  I   I103      1.0  0.80229  0.97852  0.08810  1.0000
  I   I104      1.0  0.87678  0.03800  0.19091  1.0000
  I   I105      1.0  0.29704  0.74481  0.54063  1.0000
  I   I106      1.0  0.02570  0.65627  0.48164  1.0000
  I   I107      1.0  0.65743  0.93757  0.14981  1.0000
  I   I108      1.0  0.09339  0.64775  0.47282  1.0000
  I   I109      1.0  0.63805  0.29912  0.85215  1.0000
  I   I110      1.0  0.16791  0.21604  0.59686  1.0000
  I   I111      1.0  0.04945  0.08809  0.48130  1.0000
  I   I112      1.0  0.12898  0.58379  0.02808  1.0000
  I   I113      1.0  0.10223  0.36825  0.81707  1.0000
  I   I114      1.0  0.30729  0.18316  0.59180  1.0000
  I   I115      1.0  0.58807  0.81414  0.33846  1.0000
  I   I116      1.0  0.54215  0.81013  0.30195  1.0000
  I   I117      1.0  0.05687  0.38053  0.94824  1.0000
  I   I118      1.0  0.57650  0.41223  0.46368  1.0000
  I   I119      1.0  0.63275  0.45335  0.60919  1.0000
  I   I120      1.0  0.17327  0.91854  0.20869  1.0000
  I   I121      1.0  0.03168  0.80846  0.25610  1.0000
  I   I122      1.0  0.64347  0.75509  0.13104  1.0000
  I   I123      1.0  0.51133  0.88423  0.02880  1.0000
  I   I124      1.0  0.76607  0.30993  0.45599  1.0000
  I   I125      1.0  0.62130  0.30257  0.02401  1.0000
  I   I126      1.0  0.77521  0.98189  0.43554  1.0000
  I   I127      1.0  0.36493  0.90286  0.74864  1.0000
  I   I128      1.0  0.81150  0.19660  0.51949  1.0000
  I   I129      1.0  0.65747  0.26040  0.34284  1.0000
  I   I130      1.0  0.83025  0.57797  0.33080  1.0000
  I   I131      1.0  0.56959  0.49263  0.85682  1.0000
  I   I132      1.0  0.71660  0.59998  0.54896  1.0000
  I   I133      1.0  0.04393  0.88569  0.62005  1.0000
  I   I134      1.0  0.48358  0.35585  0.94305  1.0000
  I   I135      1.0  0.50489  0.36404  0.06467  1.0000
  I   I136      1.0  0.92938  0.25076  0.15673  1.0000
  I   I137      1.0  0.55808  0.88432  0.18828  1.0000
  I   I138      1.0  0.55726  0.67484  0.10530  1.0000
  I   I139      1.0  0.37336  0.57506  0.56906  1.0000
  I   I140      1.0  0.72457  0.07657  0.78082  1.0000
  I   I141      1.0  0.80173  0.57995  0.01435  1.0000
  I   I142      1.0  0.48594  0.75183  0.47163  1.0000
  I   I143      1.0  0.25789  0.49327  0.13147  1.0000
  I   I144      1.0  0.07989  0.53169  0.09498  1.0000
  I   I145      1.0  0.59264  0.85268  0.60489  1.0000
  I   I146      1.0  0.41679  0.08701  0.35381  1.0000
  I   I147      1.0  0.98251  0.68305  0.31302  1.0000
  I   I148      1.0  0.09000  0.91977  0.98906  1.0000
  I   I149      1.0  0.99493  0.78932  0.68763  1.0000
  I   I150      1.0  0.48923  0.24201  0.92256  1.0000
  I   I151      1.0  0.86760  0.94066  0.12171  1.0000
  I   I152      1.0  0.43618  0.18768  0.21133  1.0000
  I   I153      1.0  0.34220  0.74602  0.39982  1.0000
  I   I154      1.0  0.69218  0.17677  0.60654  1.0000
  I   I155      1.0  0.10828  0.54616  0.64554  1.0000
  I   I156      1.0  0.05286  0.59872  0.42113  1.0000
  I   I157      1.0  0.59965  0.25945  0.65464  1.0000
  I   I158      1.0  0.15509  0.97388  0.42203  1.0000
  I   I159      1.0  0.60167  0.26484  0.85639  1.0000
  I   I160      1.0  0.08645  0.63823  0.95033  1.0000
  I   I161      1.0  0.37968  0.14711  0.59480  1.0000
  I   I162      1.0  0.08884  0.69272  0.92345  1.0000
  I   I163      1.0  0.62282  0.75007  0.30601  1.0000
  I   I164      1.0  0.08779  0.31056  0.93602  1.0000
  I   I165      1.0  0.19441  0.06127  0.98079  1.0000
  I   I166      1.0  0.58612  0.43056  0.60121  1.0000
  I   I167      1.0  0.64057  0.04006  0.42428  1.0000
  I   I168      1.0  0.99483  0.95249  0.32442  1.0000
  I   I169      1.0  0.64164  0.80779  0.07928  1.0000
  I   I170      1.0  0.70193  0.70609  0.12611  1.0000
  I   I171      1.0  0.01777  0.83060  0.37928  1.0000
  I   I172      1.0  0.75891  0.26349  0.39968  1.0000
  I   I173      1.0  0.83870  0.97255  0.48246  1.0000
  I   I174      1.0  0.86791  0.22393  0.29551  1.0000
  I   I175      1.0  0.81983  0.22855  0.61118  1.0000
  I   I176      1.0  0.68278  0.20914  0.19073  1.0000
  I   I177      1.0  0.52979  0.42829  0.77826  1.0000
  I   I178      1.0  0.49448  0.54374  0.86365  1.0000
  I   I179      1.0  0.74285  0.52485  0.47684  1.0000
  I   I180      1.0  0.86124  0.51572  0.37709  1.0000
  I   I181      1.0  0.95487  0.37358  0.15110  1.0000
  I   I182      1.0  0.52350  0.33529  0.20346  1.0000
  I   I183      1.0  0.92446  0.91836  0.68486  1.0000
  I   I184      1.0  0.54158  0.94183  0.25413  1.0000
  I   I185      1.0  0.54599  0.63952  0.03753  1.0000
  I   I186      1.0  0.88300  0.31988  0.08529  1.0000
  I   I187      1.0  0.76682  0.00803  0.73798  1.0000
  I   I188      1.0  0.83784  0.54934  0.22052  1.0000
  I   I189      1.0  0.38652  0.60946  0.65483  1.0000
  I   I190      1.0  0.32369  0.49748  0.32569  1.0000
  I   I191      1.0  0.07100  0.18540  0.32225  1.0000
  I   I192      1.0  0.49470  0.68987  0.63195  1.0000
  I   I193      1.0  0.51593  0.89274  0.61261  1.0000
  I   I194      1.0  0.01569  0.23282  0.29841  1.0000
  I   I195      1.0  0.96190  0.63297  0.30486  1.0000
  I   I196      1.0  0.04538  0.04541  0.04168  1.0000
  I   I197      1.0  0.71664  0.10867  0.39890  1.0000
  I   I198      1.0  0.40913  0.23092  0.87995  1.0000
  I   I199      1.0  0.84254  0.99486  0.02020  1.0000
  I   I200      1.0  0.40479  0.26583  0.32162  1.0000
  I   I201      1.0  0.24526  0.83941  0.49825  1.0000
  I   I202      1.0  0.66805  0.90073  0.01625  1.0000
  I   I203      1.0  0.13641  0.06072  0.97728  1.0000
  I   I204      1.0  0.14548  0.63867  0.38855  1.0000
  I   I205      1.0  0.23010  0.13491  0.55161  1.0000
  I   I206      1.0  0.07238  0.02083  0.46341  1.0000
  I   I207      1.0  0.59487  0.23039  0.76606  1.0000
  I   I208      1.0  0.60103  0.88123  0.78862  1.0000
  I   I209      1.0  0.34384  0.11231  0.56091  1.0000
  I   I210      1.0  0.15285  0.66907  0.90976  1.0000
  I   I211      1.0  0.57535  0.76981  0.40748  1.0000
  I   I212      1.0  0.43948  0.97529  0.67488  1.0000
  I   I213      1.0  0.15162  0.11029  0.04093  1.0000
  I   I214      1.0  0.63394  0.43031  0.48478  1.0000
  I   I215      1.0  0.58008  0.04125  0.39596  1.0000
  I   I216      1.0  0.94205  0.93054  0.33281  1.0000
  I   I217      1.0  0.67347  0.75255  0.02106  1.0000
  I   I218      1.0  0.38892  0.00002  0.06162  1.0000
  I   I219      1.0  0.07325  0.82997  0.17683  1.0000
  I   I220      1.0  0.61983  0.32520  0.15087  1.0000
  I   I221      1.0  0.81997  0.91853  0.44532  1.0000
  I   I222      1.0  0.83576  0.28963  0.23960  1.0000
  I   I223      1.0  0.74730  0.30433  0.66845  1.0000
  I   I224      1.0  0.71385  0.21182  0.28519  1.0000
  I   I225      1.0  0.36209  0.84942  0.83209  1.0000
  I   I226      1.0  0.52744  0.48016  0.91183  1.0000
  I   I227      1.0  0.78427  0.48713  0.61408  1.0000
  I   I228      1.0  0.86543  0.61778  0.42486  1.0000
  I   I229      1.0  0.96473  0.36523  0.37598  1.0000
  I   I230      1.0  0.55314  0.32386  0.97690  1.0000
  I   I231      1.0  0.95003  0.92350  0.53115  1.0000
  I   I232      1.0  0.16283  0.09738  0.25173  1.0000
  I   I233      1.0  0.60575  0.62240  0.99338  1.0000
  I   I234      1.0  0.83640  0.28967  0.04573  1.0000
  I   I235      1.0  0.65202  0.14739  0.42605  1.0000
  I   I236      1.0  0.74490  0.61813  0.08367  1.0000
  I   I237      1.0  0.42687  0.54389  0.63496  1.0000
  I   I238      1.0  0.28105  0.43388  0.18530  1.0000
  I   I239      1.0  0.00832  0.53090  0.03225  1.0000
  I   I240      1.0  0.54973  0.72113  0.51542  1.0000
  I   I241      1.0  0.62400  0.75511  0.75274  1.0000
  I   I242      1.0  0.44905  0.12436  0.34169  1.0000
  I   I243      1.0  0.91279  0.69820  0.27324  1.0000
  I   I244      1.0  0.06431  0.00106  0.92641  1.0000
  I   I245      1.0  0.21041  0.56984  0.62741  1.0000
  I   I246      1.0  0.46555  0.18714  0.85635  1.0000
  I   I247      1.0  0.87788  0.98612  0.13180  1.0000
  I   I248      1.0  0.49200  0.21594  0.17569  1.0000
  I   I249      1.0  0.35094  0.76574  0.51377  1.0000
  I   I250      1.0  0.64622  0.97304  0.98975  1.0000
  I   I251      1.0  0.06697  0.53674  0.76758  1.0000
  I   I252      1.0  0.08103  0.59649  0.51053  1.0000
  I   I253      1.0  0.23112  0.19009  0.62003  1.0000
  I   I254      1.0  0.11807  0.05598  0.44657  1.0000
  I   I255      1.0  0.57320  0.29413  0.75130  1.0000
  I   I256      1.0  0.17105  0.33506  0.75438  1.0000
  I   I257      1.0  0.33657  0.13001  0.68739  1.0000
  I   I258      1.0  0.15670  0.61072  0.96575  1.0000
  I   I259      1.0  0.56052  0.74559  0.31595  1.0000
  I   I260      1.0  0.05867  0.33561  0.04773  1.0000
  I   I261      1.0  0.22253  0.01574  0.89495  1.0000
  I   I262      1.0  0.65577  0.40340  0.67548  1.0000
  I   I263      1.0  0.59567  0.03680  0.48370  1.0000
  I   I264      1.0  0.94148  0.98388  0.41536  1.0000
  I   I265      1.0  0.69654  0.77726  0.15505  1.0000
  I   I266      1.0  0.47585  0.90340  0.91442  1.0000
  I   I267      1.0  0.05623  0.84935  0.28661  1.0000
  I   I268      1.0  0.65543  0.34088  0.03790  1.0000
  I   I269      1.0  0.76886  0.03221  0.49116  1.0000
  I   I270      1.0  0.81264  0.30543  0.36610  1.0000
  I   I271      1.0  0.79596  0.29531  0.62234  1.0000
  I   I272      1.0  0.61362  0.32846  0.29604  1.0000
  I   I273      1.0  0.34093  0.91381  0.86513  1.0000
  I   I274      1.0  0.54040  0.56040  0.90443  1.0000
  I   I275      1.0  0.81381  0.47268  0.49782  1.0000
  I   I276      1.0  0.89451  0.55126  0.35738  1.0000
  I   I277      1.0  0.02706  0.37012  0.35151  1.0000
  I   I278      1.0  0.46955  0.33728  0.06084  1.0000
  I   I279      1.0  0.00135  0.93496  0.53479  1.0000
  I   I280      1.0  0.60815  0.89821  0.24467  1.0000
  I   I281      1.0  0.59400  0.67262  0.19115  1.0000
  I   I282      1.0  0.92132  0.31204  0.17338  1.0000
  I   I283      1.0  0.66554  0.19592  0.46635  1.0000
  I   I284      1.0  0.77062  0.54837  0.16738  1.0000
  I   I285      1.0  0.43498  0.55293  0.51455  1.0000
  I   I286      1.0  0.38058  0.44746  0.25172  1.0000
  I   I287      1.0  0.13465  0.45136  0.05156  1.0000
  I   I288      1.0  0.48883  0.68818  0.49686  1.0000
  I   I289      1.0  0.59799  0.81049  0.68052  1.0000
  I   I290      1.0  0.03219  0.17874  0.21269  1.0000
  I   I291      1.0  0.39902  0.10014  0.23677  1.0000
  I   I292      1.0  0.04016  0.96164  0.87227  1.0000
  I   I293      1.0  0.23433  0.61323  0.57616  1.0000
  I   I294      1.0  0.41380  0.28808  0.85083  1.0000
  I   I295      1.0  0.81732  0.06090  0.22400  1.0000
  I   I296      1.0  0.51538  0.14483  0.25361  1.0000
  I   I297      1.0  0.23735  0.78354  0.53718  1.0000
  I   I298      1.0  0.64971  0.14110  0.56021  1.0000
  I   I299      1.0  0.73496  0.90255  0.16764  1.0000
  I   I300      1.0  0.06153  0.64761  0.35979  1.0000
  I   I301      1.0  0.63299  0.28737  0.74924  1.0000
  I   I302      1.0  0.16950  0.27725  0.57651  1.0000
  I   I303      1.0  0.04194  0.05095  0.37573  1.0000
  I   I304      1.0  0.09738  0.63959  0.09709  1.0000
  I   I305      1.0  0.63848  0.91022  0.83574  1.0000
  I   I306      1.0  0.48393  0.31078  0.16740  1.0000
  I   I307      1.0  0.53102  0.87229  0.34748  1.0000
  I   I308      1.0  0.42131  0.03070  0.75304  1.0000
  I   I309      1.0  0.14036  0.13793  0.92375  1.0000
  I   I310      1.0  0.68020  0.39820  0.56699  1.0000
  I   I311      1.0  0.59642  0.06816  0.57634  1.0000
  I   I312      1.0  0.12544  0.94307  0.11910  1.0000
  I   I313      1.0  0.08169  0.78422  0.33138  1.0000
  I   I314      1.0  0.72857  0.74474  0.05641  1.0000
  I   I315      1.0  0.37065  0.98260  0.96514  1.0000
  I   I316      1.0  0.79877  0.26264  0.27497  1.0000
  I   I317      1.0  0.61091  0.38851  0.10011  1.0000
  I   I318      1.0  0.77925  0.94406  0.54562  1.0000
  I   I319      1.0  0.49541  0.39222  0.74874  1.0000
  I   I320      1.0  0.83665  0.16496  0.66426  1.0000
  I   I321      1.0  0.65088  0.21085  0.29436  1.0000
  I   I322      1.0  0.58308  0.48808  0.00255  1.0000
  I   I323      1.0  0.70847  0.54439  0.59006  1.0000
  I   I324      1.0  0.87944  0.58203  0.54175  1.0000
  I   I325      1.0  0.01764  0.32157  0.17045  1.0000
  I   I326      1.0  0.46271  0.38343  0.15573  1.0000
  I   I327      1.0  0.95484  0.95453  0.65162  1.0000
  I   I328      1.0  0.20063  0.10012  0.15412  1.0000
  I   I329      1.0  0.61967  0.70125  0.08105  1.0000
  I   I330      1.0  0.91668  0.25112  0.05565  1.0000
  I   I331      1.0  0.44450  0.59040  0.60171  1.0000
  I   I332      1.0  0.73048  0.14695  0.39299  1.0000
  I   I333      1.0  0.79916  0.59692  0.14404  1.0000
  I   I334      1.0  0.53761  0.67337  0.55772  1.0000
  I   I335      1.0  0.26124  0.48593  0.27077  1.0000
  I   I336      1.0  0.05847  0.47767  0.05488  1.0000
  I   I337      1.0  0.55352  0.82919  0.59147  1.0000
  I   I338      1.0  0.00452  0.17596  0.32479  1.0000
  I   I339      1.0  0.45851  0.06469  0.25779  1.0000
  I   I340      1.0  0.05818  0.98241  0.03047  1.0000
  I   I341      1.0  0.93667  0.84212  0.64401  1.0000
  I   I342      1.0  0.46648  0.23777  0.81059  1.0000
  I   I343      1.0  0.84370  0.98974  0.24175  1.0000
  I   I344      1.0  0.40306  0.20278  0.29347  1.0000
  I   I345      1.0  0.28571  0.78054  0.44930  1.0000
  I   I346      1.0  0.70431  0.12943  0.50296  1.0000
  I   I347      1.0  0.60629  0.95915  0.07851  1.0000
  I   I348      1.0  0.11703  0.59177  0.33733  1.0000
  I   I349      1.0  0.56991  0.33950  0.83900  1.0000
  I   I350      1.0  0.21515  0.24605  0.67878  1.0000
  I   I351      1.0  0.07064  0.09430  0.35286  1.0000
  I   I352      1.0  0.12639  0.63799  0.85394  1.0000
  I   I353      1.0  0.13584  0.29967  0.77701  1.0000
  I   I354      1.0  0.47103  0.39117  0.28609  1.0000
  I   I355      1.0  0.56174  0.83482  0.45033  1.0000
  I   I356      1.0  0.12758  0.33055  0.99334  1.0000
  I   I357      1.0  0.16436  0.08003  0.86459  1.0000
  I   I358      1.0  0.98422  0.90708  0.42714  1.0000
  I   I359      1.0  0.66585  0.04125  0.54919  1.0000
  I   I360      1.0  0.14545  0.98719  0.18295  1.0000
  I   I361      1.0  0.00229  0.78405  0.37084  1.0000
  I   I362      1.0  0.68073  0.80392  0.97557  1.0000
  I   I363      1.0  0.46343  0.86569  0.00564  1.0000
  I   I364      1.0  0.82472  0.24519  0.38911  1.0000
  I   I365      1.0  0.69898  0.35401  0.10677  1.0000
  I   I366      1.0  0.83607  0.92683  0.56256  1.0000
  I   I367      1.0  0.45517  0.45333  0.79105  1.0000
  I   I368      1.0  0.76138  0.23344  0.61237  1.0000
  I   I369      1.0  0.62846  0.27029  0.24181  1.0000
  I   I370      1.0  0.61057  0.43731  0.92509  1.0000
  I   I371      1.0  0.77349  0.45339  0.53778  1.0000
  I   I372      1.0  0.82097  0.59445  0.44110  1.0000
  I   I373      1.0  0.96253  0.42654  0.35775  1.0000
  I   I374      1.0  0.51161  0.29041  0.97954  1.0000
  I   I375      1.0  0.89528  0.96424  0.59661  1.0000
  I   I376      1.0  0.55813  0.93647  0.12306  1.0000
  I   I377      1.0  0.59318  0.58805  0.09771  1.0000
  I   I378      1.0  0.95699  0.28889  0.06417  1.0000
  I   I379      1.0  0.46216  0.56761  0.71990  1.0000
  I   I380      1.0  0.79072  0.05802  0.72363  1.0000
  I   I381      1.0  0.82359  0.49806  0.15209  1.0000
  I   I382      1.0  0.44983  0.73310  0.55792  1.0000
  I   I383      1.0  0.34024  0.42194  0.29901  1.0000
  I   I384      1.0  0.09291  0.48958  0.97506  1.0000
