data_image0
_chemical_formula_structural       Ti96I384
_chemical_formula_sum              "Ti96 I384"
_cell_length_a       77.2682
_cell_length_b       77.4227
_cell_length_c       37.835
_cell_angle_alpha    88.7757
_cell_angle_beta     88.7757
_cell_angle_gamma    62.1586

_space_group_name_H-M_alt    "P 1"
_space_group_IT_number       1

loop_
  _space_group_symop_operation_xyz
  'x, y, z'

loop_
  _atom_site_type_symbol
  _atom_site_label
  _atom_site_symmetry_multiplicity
  _atom_site_fract_x
  _atom_site_fract_y
  _atom_site_fract_z
  _atom_site_occupancy
  Ti  Ti1       1.0  0.93842  0.69369  0.26527  1.0000
  Ti  Ti2       1.0  0.52487  0.83455  0.60942  1.0000
  Ti  Ti3       1.0  0.06931  0.16273  0.50331  1.0000
  Ti  Ti4       1.0  0.24502  0.12763  0.93731  1.0000
  Ti  Ti5       1.0  0.53693  0.05592  0.48519  1.0000
  Ti  Ti6       1.0  0.65375  0.61736  0.28337  1.0000
  Ti  Ti7       1.0  0.74481  0.84671  0.29224  1.0000
  Ti  Ti8       1.0  0.95228  0.16570  0.82774  1.0000
  Ti  Ti9       1.0  0.07990  0.28545  0.76317  1.0000
  Ti  Ti10      1.0  0.73858  0.58109  0.38207  1.0000
  Ti  Ti11      1.0  0.97233  0.02131  0.08189  1.0000
  Ti  Ti12      1.0  0.42926  0.97400  0.81182  1.0000
  Ti  Ti13      1.0  0.88169  0.57935  0.79307  1.0000
  Ti  Ti14      1.0  0.26484  0.11436  0.84697  1.0000
  Ti  Ti15      1.0  0.95028  0.18852  0.41142  1.0000
  Ti  Ti16      1.0  0.07676  0.04335  0.98253  1.0000
  Ti  Ti17      1.0  0.34130  0.27912  0.21732  1.0000
  Ti  Ti18      1.0  0.73581  0.29165  0.97875  1.0000
  Ti  Ti19      1.0  0.43317  0.24157  0.61728  1.0000
  Ti  Ti20      1.0  0.08119  0.62367  0.60013  1.0000
  Ti  Ti21      1.0  0.91460  0.20082  0.89541  1.0000
  Ti  Ti22      1.0  0.52252  0.55604  0.39660  1.0000
  Ti  Ti23      1.0  0.25200  0.42103  0.66871  1.0000
  Ti  Ti24      1.0  0.43335  0.30687  0.47839  1.0000
  Ti  Ti25      1.0  0.72726  0.33650  0.19944  1.0000
  Ti  Ti26      1.0  0.13258  0.74975  0.29908  1.0000
  Ti  Ti27      1.0  0.76767  0.74865  0.73198  1.0000
  Ti  Ti28      1.0  0.34577  0.93016  0.23697  1.0000
  Ti  Ti29      1.0  0.01089  0.00437  0.71244  1.0000
  Ti  Ti30      1.0  0.18850  0.46156  0.14126  1.0000
  Ti  Ti31      1.0  0.84433  0.14423  0.34320  1.0000
  Ti  Ti32      1.0  0.47033  0.67065  0.42544  1.0000
  Ti  Ti33      1.0  0.55304  0.27397  0.21847  1.0000
  Ti  Ti34      1.0  0.59361  0.38440  0.90016  1.0000
  Ti  Ti35      1.0  0.68097  0.92888  0.78037  1.0000
  Ti  Ti36      1.0  0.43724  0.19085  0.28068  1.0000
  Ti  Ti37      1.0  0.34319  0.26946  0.77746  1.0000
  Ti  Ti38      1.0  0.41707  0.37083  0.88116  1.0000
  Ti  Ti39      1.0  0.78979  0.54138  0.42670  1.0000
  Ti  Ti40      1.0  0.69878  0.55415  0.67018  1.0000
  Ti  Ti41      1.0  0.12100  0.64736  0.81291  1.0000
  Ti  Ti42      1.0  0.88722  0.65772  0.49335  1.0000
  Ti  Ti43      1.0  0.20215  0.88827  0.27922  1.0000
  Ti  Ti44      1.0  0.98670  0.27574  0.79367  1.0000
  Ti  Ti45      1.0  0.80672  0.52936  0.21833  1.0000
  Ti  Ti46      1.0  0.84650  0.29769  0.83179  1.0000
  Ti  Ti47      1.0  0.80532  0.16282  0.85986  1.0000
  Ti  Ti48      1.0  0.83244  0.90411  0.24690  1.0000
  Ti  Ti49      1.0  0.25025  0.89561  0.29100  1.0000
  Ti  Ti50      1.0  0.04433  0.57218  0.31077  1.0000
  Ti  Ti51      1.0  0.57461  0.77328  0.65316  1.0000
  Ti  Ti52      1.0  0.43221  0.61137  0.53390  1.0000
  Ti  Ti53      1.0  0.30625  0.71509  0.64741  1.0000
  Ti  Ti54      1.0  0.34747  0.75621  0.74227  1.0000
  Ti  Ti55      1.0  0.56883  0.63682  0.63226  1.0000
  Ti  Ti56      1.0  0.72558  0.02193  0.71442  1.0000
  Ti  Ti57      1.0  0.12437  0.27988  0.75794  1.0000
  Ti  Ti58      1.0  0.38983  0.23185  0.08791  1.0000
  Ti  Ti59      1.0  0.11230  0.00236  0.98970  1.0000
  Ti  Ti60      1.0  0.93647  0.20835  0.09882  1.0000
  Ti  Ti61      1.0  0.52667  0.17407  0.11319  1.0000
  Ti  Ti62      1.0  0.84410  0.63454  0.81022  1.0000
  Ti  Ti63      1.0  0.11277  0.67639  0.58153  1.0000
  Ti  Ti64      1.0  0.70256  0.31965  0.93959  1.0000
  Ti  Ti65      1.0  0.99097  0.54069  0.92671  1.0000
  Ti  Ti66      1.0  0.32755  0.98664  0.19219  1.0000
  Ti  Ti67      1.0  0.26806  0.53640  0.97314  1.0000
  Ti  Ti68      1.0  0.80629  0.30931  0.73382  1.0000
  Ti  Ti69      1.0  0.15786  0.70254  0.33935  1.0000
  Ti  Ti70      1.0  0.22660  0.96502  0.49491  1.0000
  Ti  Ti71      1.0  0.27030  0.67699  0.18585  1.0000
  Ti  Ti72      1.0  0.84146  0.13038  0.81016  1.0000
  Ti  Ti73      1.0  0.63179  0.34350  0.38584  1.0000
  Ti  Ti74      1.0  0.76241  0.29718  0.26834  1.0000
  Ti  Ti75      1.0  0.82106  0.68059  0.26786  1.0000
  Ti  Ti76      1.0  0.79424  0.03714  0.29453  1.0000
  Ti  Ti77      1.0  0.90591  0.19037  0.37992  1.0000
  Ti  Ti78      1.0  0.98326  0.99746  0.62017  1.0000
  Ti  Ti79      1.0  0.47358  0.92040  0.40944  1.0000
  Ti  Ti80      1.0  0.78347  0.62379  0.53608  1.0000
  Ti  Ti81      1.0  0.26003  0.37710  0.72809  1.0000
  Ti  Ti82      1.0  0.70625  0.47629  0.84252  1.0000
  Ti  Ti83      1.0  0.83573  0.48925  0.20234  1.0000
  Ti  Ti84      1.0  0.41441  0.18006  0.34827  1.0000
  Ti  Ti85      1.0  0.33146  0.24335  0.82790  1.0000
  Ti  Ti86      1.0  0.72719  0.91012  0.30069  1.0000
  Ti  Ti87      1.0  0.63969  0.73689  0.15574  1.0000
  Ti  Ti88      1.0  0.09952  0.98337  0.47510  1.0000
  Ti  Ti89      1.0  0.02141  0.44607  0.71209  1.0000
  Ti  Ti90      1.0  0.31675  0.23992  0.03287  1.0000
  Ti  Ti91      1.0  0.65831  0.34329  0.63936  1.0000
  Ti  Ti92      1.0  0.38769  0.59721  0.08971  1.0000
  Ti  Ti93      1.0  0.31444  0.58621  0.80785  1.0000
  Ti  Ti94      1.0  0.87124  0.90762  0.24963  1.0000
  Ti  Ti95      1.0  0.64278  0.07381  0.53675  1.0000
  Ti  Ti96      1.0  0.51865  0.44157  0.34940  1.0000
  I   I1        1.0  0.85052  0.15910  0.82410  1.0000
  I   I2        1.0  0.57338  0.77016  0.71963  1.0000
  I   I3        1.0  0.28799  0.87165  0.31687  1.0000
  I   I4        1.0  0.31830  0.69511  0.70712  1.0000
  I   I5        1.0  0.63145  0.65634  0.27373  1.0000
  I   I6        1.0  0.31668  0.78052  0.70416  1.0000
  I   I7        1.0  0.90933  0.21943  0.95117  1.0000
  I   I8        1.0  0.72049  0.02051  0.77774  1.0000
  I   I9        1.0  0.11576  0.24732  0.74469  1.0000
  I   I10       1.0  0.72397  0.56524  0.68991  1.0000
  I   I11       1.0  0.98100  0.99443  0.12739  1.0000
  I   I12       1.0  0.54857  0.07066  0.53513  1.0000
  I   I13       1.0  0.80849  0.64320  0.81100  1.0000
  I   I14       1.0  0.12327  0.68815  0.64443  1.0000
  I   I15       1.0  0.91494  0.22777  0.38092  1.0000
  I   I16       1.0  0.67325  0.57965  0.70967  1.0000
  I   I17       1.0  0.33740  0.90880  0.19832  1.0000
  I   I18       1.0  0.73902  0.29472  0.04603  1.0000
  I   I19       1.0  0.08481  0.70989  0.59063  1.0000
  I   I20       1.0  0.94490  0.02530  0.04323  1.0000
  I   I21       1.0  0.97806  0.13051  0.83531  1.0000
  I   I22       1.0  0.24479  0.38998  0.63356  1.0000
  I   I23       1.0  0.06627  0.00124  0.51168  1.0000
  I   I24       1.0  0.23466  0.99392  0.50750  1.0000
  I   I25       1.0  0.71091  0.37551  0.18897  1.0000
  I   I26       1.0  0.85060  0.65744  0.22858  1.0000
  I   I27       1.0  0.67122  0.90246  0.75432  1.0000
  I   I28       1.0  0.38566  0.91707  0.21583  1.0000
  I   I29       1.0  0.04452  0.98871  0.75148  1.0000
  I   I30       1.0  0.18033  0.43343  0.16458  1.0000
  I   I31       1.0  0.80330  0.60689  0.47908  1.0000
  I   I32       1.0  0.23431  0.36511  0.70171  1.0000
  I   I33       1.0  0.43898  0.94759  0.39111  1.0000
  I   I34       1.0  0.68374  0.90780  0.83902  1.0000
  I   I35       1.0  0.39860  0.15627  0.33135  1.0000
  I   I36       1.0  0.63227  0.37156  0.88567  1.0000
  I   I37       1.0  0.29031  0.25432  0.80965  1.0000
  I   I38       1.0  0.81597  0.50583  0.39300  1.0000
  I   I39       1.0  0.36869  0.28462  0.77009  1.0000
  I   I40       1.0  0.00191  0.25133  0.84445  1.0000
  I   I41       1.0  0.02204  0.55962  0.33337  1.0000
  I   I42       1.0  0.69360  0.52168  0.68222  1.0000
  I   I43       1.0  0.42445  0.21290  0.12418  1.0000
  I   I44       1.0  0.98935  0.30886  0.80245  1.0000
  I   I45       1.0  0.83830  0.51924  0.16860  1.0000
  I   I46       1.0  0.60939  0.07887  0.50934  1.0000
  I   I47       1.0  0.77154  0.16526  0.87915  1.0000
  I   I48       1.0  0.85215  0.90140  0.18284  1.0000
  I   I49       1.0  0.21206  0.91685  0.26302  1.0000
  I   I50       1.0  0.49789  0.83728  0.56669  1.0000
  I   I51       1.0  0.54060  0.79037  0.60629  1.0000
  I   I52       1.0  0.76708  0.60359  0.56676  1.0000
  I   I53       1.0  0.33048  0.72702  0.61355  1.0000
  I   I54       1.0  0.34719  0.78711  0.78130  1.0000
  I   I55       1.0  0.75251  0.92226  0.28194  1.0000
  I   I56       1.0  0.94353  0.15324  0.76487  1.0000
  I   I57       1.0  0.64010  0.10398  0.49792  1.0000
  I   I58       1.0  0.77776  0.57014  0.37856  1.0000
  I   I59       1.0  0.09221  0.01051  0.04647  1.0000
  I   I60       1.0  0.94432  0.21558  0.16011  1.0000
  I   I61       1.0  0.86698  0.56690  0.84837  1.0000
  I   I62       1.0  0.83814  0.66989  0.83090  1.0000
  I   I63       1.0  0.04898  0.62211  0.58943  1.0000
  I   I64       1.0  0.05652  0.02059  0.96670  1.0000
  I   I65       1.0  0.97014  0.57189  0.88929  1.0000
  I   I66       1.0  0.35886  0.89764  0.27733  1.0000
  I   I67       1.0  0.41688  0.21973  0.61073  1.0000
  I   I68       1.0  0.07151  0.62600  0.66507  1.0000
  I   I69       1.0  0.15233  0.72295  0.25113  1.0000
  I   I70       1.0  0.23481  0.96212  0.42551  1.0000
  I   I71       1.0  0.23111  0.45511  0.63995  1.0000
  I   I72       1.0  0.80318  0.15176  0.78982  1.0000
  I   I73       1.0  0.78541  0.76955  0.73625  1.0000
  I   I74       1.0  0.09803  0.77142  0.26626  1.0000
  I   I75       1.0  0.15039  0.77246  0.28201  1.0000
  I   I76       1.0  0.93834  0.18446  0.33737  1.0000
  I   I77       1.0  0.97835  0.20088  0.41535  1.0000
  I   I78       1.0  0.84003  0.13424  0.27756  1.0000
  I   I79       1.0  0.54456  0.26154  0.27872  1.0000
  I   I80       1.0  0.93611  0.72206  0.21814  1.0000
  I   I81       1.0  0.50033  0.67438  0.40683  1.0000
  I   I82       1.0  0.70597  0.50441  0.80007  1.0000
  I   I83       1.0  0.87318  0.46355  0.18793  1.0000
  I   I84       1.0  0.45149  0.15843  0.32197  1.0000
  I   I85       1.0  0.33676  0.23887  0.75651  1.0000
  I   I86       1.0  0.30808  0.96464  0.21687  1.0000
  I   I87       1.0  0.76442  0.55165  0.47668  1.0000
  I   I88       1.0  0.71300  0.56536  0.38702  1.0000
  I   I89       1.0  0.57607  0.36132  0.91166  1.0000
  I   I90       1.0  0.07502  0.56561  0.35986  1.0000
  I   I91       1.0  0.67736  0.32608  0.69311  1.0000
  I   I92       1.0  0.41296  0.57292  0.13408  1.0000
  I   I93       1.0  0.95300  0.29378  0.82958  1.0000
  I   I94       1.0  0.86890  0.87705  0.27596  1.0000
  I   I95       1.0  0.82041  0.29368  0.86962  1.0000
  I   I96       1.0  0.56066  0.53774  0.38986  1.0000
  I   I97       1.0  0.09130  0.16196  0.44826  1.0000
  I   I98       1.0  0.90399  0.70027  0.24519  1.0000
  I   I99       1.0  0.58229  0.74022  0.62554  1.0000
  I   I100      1.0  0.28581  0.10987  0.90523  1.0000
  I   I101      1.0  0.08827  0.96591  0.42783  1.0000
  I   I102      1.0  0.54442  0.07124  0.43150  1.0000
  I   I103      1.0  0.69595  0.94151  0.29462  1.0000
  I   I104      1.0  0.55209  0.63973  0.57306  1.0000
  I   I105      1.0  0.08776  0.31077  0.73068  1.0000
  I   I106      1.0  0.39956  0.00614  0.81661  1.0000
  I   I107      1.0  0.73757  0.60296  0.32976  1.0000
  I   I108      1.0  0.44688  0.97876  0.75546  1.0000
  I   I109      1.0  0.93061  0.21041  0.46918  1.0000
  I   I110      1.0  0.88898  0.60871  0.80834  1.0000
  I   I111      1.0  0.07427  0.66265  0.59175  1.0000
  I   I112      1.0  0.68226  0.35160  0.90274  1.0000
  I   I113      1.0  0.98179  0.55225  0.99347  1.0000
  I   I114      1.0  0.31623  0.26443  0.22144  1.0000
  I   I115      1.0  0.23738  0.53430  0.00670  1.0000
  I   I116      1.0  0.24647  0.57371  0.94511  1.0000
  I   I117      1.0  0.78193  0.30514  0.78273  1.0000
  I   I118      1.0  0.49651  0.45968  0.30056  1.0000
  I   I119      1.0  0.29420  0.53641  0.01642  1.0000
  I   I120      1.0  0.80175  0.19473  0.88242  1.0000
  I   I121      1.0  0.65366  0.31981  0.33457  1.0000
  I   I122      1.0  0.72753  0.33141  0.12939  1.0000
  I   I123      1.0  0.83186  0.70745  0.27107  1.0000
  I   I124      1.0  0.22428  0.44842  0.16883  1.0000
  I   I125      1.0  0.82144  0.02551  0.23416  1.0000
  I   I126      1.0  0.96135  0.98448  0.66814  1.0000
  I   I127      1.0  0.51950  0.30598  0.22021  1.0000
  I   I128      1.0  0.26716  0.10757  0.99626  1.0000
  I   I129      1.0  0.25193  0.37568  0.79809  1.0000
  I   I130      1.0  0.43366  0.20652  0.36079  1.0000
  I   I131      1.0  0.69350  0.45314  0.80833  1.0000
  I   I132      1.0  0.71308  0.91523  0.74360  1.0000
  I   I133      1.0  0.82026  0.53559  0.45844  1.0000
  I   I134      1.0  0.38270  0.40885  0.90086  1.0000
  I   I135      1.0  0.34328  0.01188  0.20105  1.0000
  I   I136      1.0  0.90480  0.65815  0.55497  1.0000
  I   I137      1.0  0.41579  0.65005  0.54341  1.0000
  I   I138      1.0  0.04120  0.42923  0.77014  1.0000
  I   I139      1.0  0.67644  0.31966  0.58768  1.0000
  I   I140      1.0  0.40072  0.61530  0.05153  1.0000
  I   I141      1.0  0.33656  0.60068  0.81982  1.0000
  I   I142      1.0  0.88798  0.91310  0.30337  1.0000
  I   I143      1.0  0.06915  0.19389  0.53182  1.0000
  I   I144      1.0  0.51063  0.58885  0.35924  1.0000
  I   I145      1.0  0.96288  0.66286  0.23079  1.0000
  I   I146      1.0  0.55350  0.83745  0.57057  1.0000
  I   I147      1.0  0.03368  0.18216  0.48939  1.0000
  I   I148      1.0  0.46773  0.59267  0.55702  1.0000
  I   I149      1.0  0.49873  0.06879  0.50026  1.0000
  I   I150      1.0  0.62937  0.60805  0.32311  1.0000
  I   I151      1.0  0.57534  0.60408  0.67123  1.0000
  I   I152      1.0  0.92949  0.16083  0.89314  1.0000
  I   I153      1.0  0.06996  0.25491  0.76188  1.0000
  I   I154      1.0  0.20597  0.85974  0.22170  1.0000
  I   I155      1.0  0.95902  0.05707  0.10040  1.0000
  I   I156      1.0  0.92449  0.18308  0.11686  1.0000
  I   I157      1.0  0.88053  0.18383  0.34497  1.0000
  I   I158      1.0  0.12715  0.66038  0.51703  1.0000
  I   I159      1.0  0.50112  0.16051  0.12412  1.0000
  I   I160      1.0  0.68874  0.32275  0.00203  1.0000
  I   I161      1.0  0.36596  0.25448  0.16714  1.0000
  I   I162      1.0  0.71571  0.27392  0.97730  1.0000
  I   I163      1.0  0.42528  0.25787  0.55423  1.0000
  I   I164      1.0  0.78319  0.34071  0.69711  1.0000
  I   I165      1.0  0.97350  0.18059  0.79036  1.0000
  I   I166      1.0  0.52304  0.44938  0.41396  1.0000
  I   I167      1.0  0.28207  0.39612  0.71612  1.0000
  I   I168      1.0  0.45693  0.29609  0.52939  1.0000
  I   I169      1.0  0.79304  0.26578  0.25474  1.0000
  I   I170      1.0  0.73213  0.33859  0.27965  1.0000
  I   I171      1.0  0.77245  0.73167  0.67372  1.0000
  I   I172      1.0  0.79960  0.01160  0.34321  1.0000
  I   I173      1.0  0.98061  0.02334  0.66444  1.0000
  I   I174      1.0  0.16937  0.47067  0.08297  1.0000
  I   I175      1.0  0.88054  0.12730  0.31644  1.0000
  I   I176      1.0  0.46469  0.69330  0.47744  1.0000
  I   I177      1.0  0.51066  0.90288  0.42573  1.0000
  I   I178      1.0  0.67514  0.50864  0.87025  1.0000
  I   I179      1.0  0.84205  0.45029  0.22626  1.0000
  I   I180      1.0  0.41606  0.22914  0.25512  1.0000
  I   I181      1.0  0.31910  0.28262  0.83316  1.0000
  I   I182      1.0  0.71934  0.83772  0.26005  1.0000
  I   I183      1.0  0.67486  0.71222  0.17292  1.0000
  I   I184      1.0  0.12011  0.00302  0.46501  1.0000
  I   I185      1.0  0.01275  0.48262  0.70357  1.0000
  I   I186      1.0  0.92110  0.65212  0.46750  1.0000
  I   I187      1.0  0.37682  0.57732  0.04803  1.0000
  I   I188      1.0  0.01043  0.25955  0.73863  1.0000
  I   I189      1.0  0.64332  0.76744  0.14558  1.0000
  I   I190      1.0  0.85294  0.32091  0.86865  1.0000
  I   I191      1.0  0.34578  0.23565  0.99733  1.0000
  I   I192      1.0  0.05579  0.14721  0.56247  1.0000
  I   I193      1.0  0.99299  0.00677  0.77158  1.0000
  I   I194      1.0  0.06341  0.53870  0.26910  1.0000
  I   I195      1.0  0.07423  0.12623  0.49091  1.0000
  I   I196      1.0  0.20850  0.13922  0.94215  1.0000
  I   I197      1.0  0.39587  0.19954  0.05982  1.0000
  I   I198      1.0  0.66299  0.59576  0.22607  1.0000
  I   I199      1.0  0.46297  0.66623  0.35529  1.0000
  I   I200      1.0  0.75071  0.99039  0.69009  1.0000
  I   I201      1.0  0.10568  0.28434  0.81958  1.0000
  I   I202      1.0  0.11357  0.03844  0.97675  1.0000
  I   I203      1.0  0.11672  0.73787  0.35913  1.0000
  I   I204      1.0  0.44356  0.97276  0.87061  1.0000
  I   I205      1.0  0.86622  0.56628  0.74877  1.0000
  I   I206      1.0  0.23879  0.15946  0.97773  1.0000
  I   I207      1.0  0.87521  0.22298  0.41084  1.0000
  I   I208      1.0  0.10224  0.01193  0.92035  1.0000
  I   I209      1.0  0.35271  0.28714  0.27969  1.0000
  I   I210      1.0  0.46890  0.91542  0.47563  1.0000
  I   I211      1.0  0.18832  0.99193  0.50552  1.0000
  I   I212      1.0  0.12827  0.63789  0.58296  1.0000
  I   I213      1.0  0.18887  0.67252  0.31291  1.0000
  I   I214      1.0  0.53129  0.56883  0.45901  1.0000
  I   I215      1.0  0.28265  0.42100  0.62882  1.0000
  I   I216      1.0  0.27916  0.61190  0.79444  1.0000
  I   I217      1.0  0.70274  0.32574  0.21782  1.0000
  I   I218      1.0  0.81746  0.67099  0.32922  1.0000
  I   I219      1.0  0.65910  0.33575  0.42664  1.0000
  I   I220      1.0  0.96971  0.15573  0.43839  1.0000
  I   I221      1.0  0.00922  0.99259  0.56920  1.0000
  I   I222      1.0  0.81381  0.05525  0.30855  1.0000
  I   I223      1.0  0.83116  0.17672  0.38631  1.0000
  I   I224      1.0  0.48300  0.63460  0.44869  1.0000
  I   I225      1.0  0.58295  0.27377  0.25532  1.0000
  I   I226      1.0  0.74373  0.47003  0.84179  1.0000
  I   I227      1.0  0.65137  0.96147  0.80011  1.0000
  I   I228      1.0  0.46546  0.19971  0.29655  1.0000
  I   I229      1.0  0.31495  0.30998  0.18909  1.0000
  I   I230      1.0  0.41347  0.34303  0.91675  1.0000
  I   I231      1.0  0.76481  0.53181  0.38558  1.0000
  I   I232      1.0  0.28196  0.08166  0.81536  1.0000
  I   I233      1.0  0.15147  0.63421  0.77564  1.0000
  I   I234      1.0  0.30136  0.22509  0.99464  1.0000
  I   I235      1.0  0.19480  0.89756  0.35191  1.0000
  I   I236      1.0  0.31724  0.55900  0.86248  1.0000
  I   I237      1.0  0.64293  0.38107  0.63165  1.0000
  I   I238      1.0  0.62458  0.06251  0.59462  1.0000
  I   I239      1.0  0.55075  0.41916  0.31220  1.0000
  I   I240      1.0  0.79997  0.93000  0.21405  1.0000
  I   I241      1.0  0.92858  0.69661  0.33661  1.0000
  I   I242      1.0  0.50303  0.86074  0.65807  1.0000
  I   I243      1.0  0.88259  0.26291  0.84241  1.0000
  I   I244      1.0  0.12408  0.95287  0.50976  1.0000
  I   I245      1.0  0.31241  0.69532  0.59293  1.0000
  I   I246      1.0  0.68319  0.60334  0.32661  1.0000
  I   I247      1.0  0.71021  0.88796  0.27624  1.0000
  I   I248      1.0  0.87487  0.20731  0.91799  1.0000
  I   I249      1.0  0.05425  0.29991  0.81391  1.0000
  I   I250      1.0  0.05453  0.07439  0.01806  1.0000
  I   I251      1.0  0.99380  0.01684  0.02466  1.0000
  I   I252      1.0  0.96366  0.19198  0.04853  1.0000
  I   I253      1.0  0.91720  0.54701  0.79379  1.0000
  I   I254      1.0  0.26906  0.13291  0.78807  1.0000
  I   I255      1.0  0.54790  0.15582  0.06164  1.0000
  I   I256      1.0  0.02898  0.51450  0.92776  1.0000
  I   I257      1.0  0.36410  0.24006  0.85567  1.0000
  I   I258      1.0  0.77267  0.27072  0.96809  1.0000
  I   I259      1.0  0.28611  0.51201  0.92286  1.0000
  I   I260      1.0  0.80310  0.28327  0.69005  1.0000
  I   I261      1.0  0.92027  0.20487  0.81818  1.0000
  I   I262      1.0  0.50446  0.53970  0.36780  1.0000
  I   I263      1.0  0.25404  0.71426  0.18577  1.0000
  I   I264      1.0  0.41144  0.18388  0.25058  1.0000
  I   I265      1.0  0.76747  0.30621  0.20107  1.0000
  I   I266      1.0  0.17200  0.73153  0.32948  1.0000
  I   I267      1.0  0.59915  0.34302  0.39922  1.0000
  I   I268      1.0  0.35180  0.96921  0.25136  1.0000
  I   I269      1.0  0.95210  0.01905  0.58688  1.0000
  I   I270      1.0  0.29408  0.00561  0.16026  1.0000
  I   I271      1.0  0.82746  0.12577  0.37031  1.0000
  I   I272      1.0  0.22848  0.42481  0.72562  1.0000
  I   I273      1.0  0.56897  0.24288  0.17959  1.0000
  I   I274      1.0  0.10035  0.63994  0.76406  1.0000
  I   I275      1.0  0.78603  0.71985  0.77889  1.0000
  I   I276      1.0  0.38606  0.21575  0.35798  1.0000
  I   I277      1.0  0.72052  0.46102  0.90611  1.0000
  I   I278      1.0  0.44370  0.37258  0.92327  1.0000
  I   I279      1.0  0.77165  0.55219  0.20434  1.0000
  I   I280      1.0  0.41004  0.59728  0.55888  1.0000
  I   I281      1.0  0.12242  0.62078  0.86214  1.0000
  I   I282      1.0  0.85343  0.66642  0.45614  1.0000
  I   I283      1.0  0.24372  0.86207  0.29690  1.0000
  I   I284      1.0  0.44644  0.32608  0.44087  1.0000
  I   I285      1.0  0.63558  0.73332  0.09036  1.0000
  I   I286      1.0  0.65041  0.08513  0.60002  1.0000
  I   I287      1.0  0.85177  0.12276  0.74190  1.0000
  I   I288      1.0  0.83773  0.93830  0.26575  1.0000
  I   I289      1.0  0.26640  0.89244  0.22425  1.0000
  I   I290      1.0  0.32576  0.21801  0.08932  1.0000
  I   I291      1.0  0.59868  0.77586  0.60279  1.0000
  I   I292      1.0  0.42847  0.61333  0.46290  1.0000
  I   I293      1.0  0.26924  0.74369  0.62585  1.0000
  I   I294      1.0  0.36618  0.72735  0.70114  1.0000
  I   I295      1.0  0.78195  0.81616  0.29232  1.0000
  I   I296      1.0  0.69166  0.03080  0.69020  1.0000
  I   I297      1.0  0.12734  0.31323  0.75710  1.0000
  I   I298      1.0  0.40806  0.24426  0.04022  1.0000
  I   I299      1.0  0.06226  0.06412  0.92843  1.0000
  I   I300      1.0  0.32621  0.55965  0.75261  1.0000
  I   I301      1.0  0.54237  0.18649  0.16383  1.0000
  I   I302      1.0  0.85780  0.61327  0.74356  1.0000
  I   I303      1.0  0.69154  0.56820  0.60433  1.0000
  I   I304      1.0  0.73172  0.32866  0.94385  1.0000
  I   I305      1.0  0.14935  0.99284  0.02620  1.0000
  I   I306      1.0  0.73676  0.84576  0.35575  1.0000
  I   I307      1.0  0.41184  0.27222  0.65691  1.0000
  I   I308      1.0  0.11292  0.59537  0.58186  1.0000
  I   I309      1.0  0.95467  0.18090  0.89000  1.0000
  I   I310      1.0  0.16441  0.90983  0.27275  1.0000
  I   I311      1.0  0.28246  0.66780  0.11837  1.0000
  I   I312      1.0  0.81400  0.11567  0.82290  1.0000
  I   I313      1.0  0.61818  0.37712  0.35749  1.0000
  I   I314      1.0  0.77576  0.29886  0.33298  1.0000
  I   I315      1.0  0.78928  0.69867  0.23003  1.0000
  I   I316      1.0  0.75580  0.06295  0.29451  1.0000
  I   I317      1.0  0.35017  0.96203  0.14993  1.0000
  I   I318      1.0  0.01236  0.03643  0.71096  1.0000
  I   I319      1.0  0.49346  0.92010  0.34947  1.0000
  I   I320      1.0  0.23312  0.14875  0.87090  1.0000
  I   I321      1.0  0.53807  0.66432  0.66390  1.0000
  I   I322      1.0  0.58785  0.40520  0.95181  1.0000
  I   I323      1.0  0.81462  0.54469  0.26847  1.0000
  I   I324      1.0  0.41379  0.17674  0.41666  1.0000
  I   I325      1.0  0.32794  0.21668  0.86604  1.0000
  I   I326      1.0  0.76417  0.87215  0.29408  1.0000
  I   I327      1.0  0.79645  0.50543  0.26850  1.0000
  I   I328      1.0  0.72034  0.60903  0.42617  1.0000
  I   I329      1.0  0.98423  0.45156  0.74043  1.0000
  I   I330      1.0  0.29015  0.27682  0.02244  1.0000
  I   I331      1.0  0.62408  0.72255  0.19578  1.0000
  I   I332      1.0  0.35076  0.25910  0.06591  1.0000
  I   I333      1.0  0.58132  0.39824  0.82997  1.0000
  I   I334      1.0  0.89064  0.92140  0.20445  1.0000
  I   I335      1.0  0.83435  0.32009  0.77325  1.0000
  I   I336      1.0  0.50797  0.41287  0.36259  1.0000
  I   I337      1.0  0.24128  0.90527  0.35968  1.0000
  I   I338      1.0  0.02161  0.60578  0.27328  1.0000
  I   I339      1.0  0.55499  0.81795  0.66835  1.0000
  I   I340      1.0  0.79480  0.63869  0.59187  1.0000
  I   I341      1.0  0.56461  0.02056  0.47486  1.0000
  I   I342      1.0  0.33077  0.74083  0.78914  1.0000
  I   I343      1.0  0.61029  0.62144  0.61045  1.0000
  I   I344      1.0  0.73504  0.04728  0.68396  1.0000
  I   I345      1.0  0.16278  0.25932  0.75878  1.0000
  I   I346      1.0  0.23981  0.93756  0.53648  1.0000
  I   I347      1.0  0.12726  0.96421  0.98901  1.0000
  I   I348      1.0  0.90626  0.24611  0.07672  1.0000
  I   I349      1.0  0.49883  0.20315  0.08388  1.0000
  I   I350      1.0  0.84378  0.62899  0.88204  1.0000
  I   I351      1.0  0.24490  0.10004  0.88451  1.0000
  I   I352      1.0  0.71716  0.29643  0.88050  1.0000
  I   I353      1.0  0.96686  0.52924  0.90759  1.0000
  I   I354      1.0  0.72874  0.90576  0.37029  1.0000
  I   I355      1.0  0.46821  0.21805  0.62829  1.0000
  I   I356      1.0  0.83636  0.27824  0.77765  1.0000
  I   I357      1.0  0.15940  0.68705  0.40000  1.0000
  I   I358      1.0  0.44628  0.27129  0.45422  1.0000
  I   I359      1.0  0.24484  0.66268  0.20249  1.0000
  I   I360      1.0  0.86935  0.09705  0.85104  1.0000
  I   I361      1.0  0.73146  0.76127  0.73736  1.0000
  I   I362      1.0  0.74209  0.27847  0.26866  1.0000
  I   I363      1.0  0.13279  0.69476  0.30974  1.0000
  I   I364      1.0  0.17640  0.49042  0.19053  1.0000
  I   I365      1.0  0.91256  0.16832  0.43451  1.0000
  I   I366      1.0  0.02047  0.97150  0.66651  1.0000
  I   I367      1.0  0.46429  0.89748  0.37149  1.0000
  I   I368      1.0  0.74901  0.65271  0.52953  1.0000
  I   I369      1.0  0.29690  0.34651  0.72263  1.0000
  I   I370      1.0  0.13558  0.65453  0.87550  1.0000
  I   I371      1.0  0.84569  0.49619  0.26884  1.0000
  I   I372      1.0  0.39784  0.32431  0.49966  1.0000
  I   I373      1.0  0.32351  0.29232  0.72641  1.0000
  I   I374      1.0  0.40105  0.37768  0.82043  1.0000
  I   I375      1.0  0.80231  0.50571  0.16882  1.0000
  I   I376      1.0  0.29906  0.65509  0.22523  1.0000
  I   I377      1.0  0.04049  0.42452  0.66189  1.0000
  I   I378      1.0  0.88946  0.62450  0.50401  1.0000
  I   I379      1.0  0.62277  0.34487  0.63797  1.0000
  I   I380      1.0  0.35773  0.62247  0.11965  1.0000
  I   I381      1.0  0.41509  0.94700  0.82500  1.0000
  I   I382      1.0  0.81167  0.89352  0.28678  1.0000
  I   I383      1.0  0.67720  0.04498  0.53342  1.0000
  I   I384      1.0  0.83433  0.13580  0.90092  1.0000
