data_image0
_chemical_formula_structural       Ti96I384
_chemical_formula_sum              "Ti96 I384"
_cell_length_a       62.6164
_cell_length_b       62.4041
_cell_length_c       30.4832
_cell_angle_alpha    88.7757
_cell_angle_beta     88.7757
_cell_angle_gamma    62.1586

_space_group_name_H-M_alt    "P 1"
_space_group_IT_number       1

loop_
  _space_group_symop_operation_xyz
  'x, y, z'

loop_
  _atom_site_type_symbol
  _atom_site_label
  _atom_site_symmetry_multiplicity
  _atom_site_fract_x
  _atom_site_fract_y
  _atom_site_fract_z
  _atom_site_occupancy
  Ti  Ti1       1.0  0.60933  0.95893  0.52528  1.0000
  Ti  Ti2       1.0  0.51058  0.12981  0.25130  1.0000
  Ti  Ti3       1.0  0.05455  0.45471  0.12440  1.0000
  Ti  Ti4       1.0  0.47841  0.50797  0.76502  1.0000
  Ti  Ti5       1.0  0.20504  0.79222  0.00783  1.0000
  Ti  Ti6       1.0  0.39839  0.14806  0.68499  1.0000
  Ti  Ti7       1.0  0.01202  0.89807  0.70960  1.0000
  Ti  Ti8       1.0  0.23379  0.57627  0.34316  1.0000
  Ti  Ti9       1.0  0.26309  0.93196  0.80248  1.0000
  Ti  Ti10      1.0  0.94347  0.81414  0.89704  1.0000
  Ti  Ti11      1.0  0.33302  0.55831  0.90285  1.0000
  Ti  Ti12      1.0  0.20657  0.67071  0.61011  1.0000
  Ti  Ti13      1.0  0.33804  0.34564  0.40549  1.0000
  Ti  Ti14      1.0  0.14561  0.98479  0.55867  1.0000
  Ti  Ti15      1.0  0.39595  0.88700  0.12777  1.0000
  Ti  Ti16      1.0  0.91697  0.68131  0.85071  1.0000
  Ti  Ti17      1.0  0.12693  0.29559  0.25057  1.0000
  Ti  Ti18      1.0  0.81712  0.56366  0.65803  1.0000
  Ti  Ti19      1.0  0.91603  0.91728  0.53514  1.0000
  Ti  Ti20      1.0  0.19651  0.11828  0.63522  1.0000
  Ti  Ti21      1.0  0.77335  0.25783  0.25345  1.0000
  Ti  Ti22      1.0  0.60225  0.67008  0.17148  1.0000
  Ti  Ti23      1.0  0.71692  0.83257  0.92435  1.0000
  Ti  Ti24      1.0  0.29292  0.77704  0.58549  1.0000
  Ti  Ti25      1.0  0.25419  0.32166  0.68619  1.0000
  Ti  Ti26      1.0  0.07417  0.18800  0.27053  1.0000
  Ti  Ti27      1.0  0.12341  0.64288  0.78498  1.0000
  Ti  Ti28      1.0  0.63458  0.50962  0.35690  1.0000
  Ti  Ti29      1.0  0.03247  0.96697  0.16875  1.0000
  Ti  Ti30      1.0  0.92325  0.42694  0.38237  1.0000
  Ti  Ti31      1.0  0.68764  0.39168  0.61780  1.0000
  Ti  Ti32      1.0  0.65929  0.05153  0.07034  1.0000
  Ti  Ti33      1.0  0.33648  0.84452  0.40135  1.0000
  Ti  Ti34      1.0  0.64710  0.73209  0.69304  1.0000
  Ti  Ti35      1.0  0.91403  0.35758  0.80226  1.0000
  Ti  Ti36      1.0  0.05149  0.54156  0.41363  1.0000
  Ti  Ti37      1.0  0.01270  0.30525  0.61132  1.0000
  Ti  Ti38      1.0  0.39206  0.41142  0.66085  1.0000
  Ti  Ti39      1.0  0.44985  0.27614  0.02925  1.0000
  Ti  Ti40      1.0  0.71756  0.71436  0.43277  1.0000
  Ti  Ti41      1.0  0.46607  0.68605  0.39830  1.0000
  Ti  Ti42      1.0  0.75065  0.96058  0.67269  1.0000
  Ti  Ti43      1.0  0.35891  0.12012  0.90618  1.0000
  Ti  Ti44      1.0  0.84407  0.62092  0.19195  1.0000
  Ti  Ti45      1.0  0.37873  0.74147  0.88913  1.0000
  Ti  Ti46      1.0  0.17147  0.20661  0.95991  1.0000
  Ti  Ti47      1.0  0.95294  0.17893  0.88321  1.0000
  Ti  Ti48      1.0  0.48392  0.49045  0.46557  1.0000
  Ti  Ti49      1.0  0.64822  0.92804  0.61402  1.0000
  Ti  Ti50      1.0  0.61520  0.12300  0.61912  1.0000
  Ti  Ti51      1.0  0.50246  0.16620  0.37875  1.0000
  Ti  Ti52      1.0  0.49968  0.44931  0.67988  1.0000
  Ti  Ti53      1.0  0.19724  0.73257  0.07712  1.0000
  Ti  Ti54      1.0  0.37539  0.14071  0.56842  1.0000
  Ti  Ti55      1.0  0.07954  0.85291  0.67215  1.0000
  Ti  Ti56      1.0  0.29164  0.59423  0.30391  1.0000
  Ti  Ti57      1.0  0.24766  0.93756  0.93884  1.0000
  Ti  Ti58      1.0  0.36377  0.08785  0.01205  1.0000
  Ti  Ti59      1.0  0.92871  0.79450  0.98378  1.0000
  Ti  Ti60      1.0  0.22686  0.60396  0.59500  1.0000
  Ti  Ti61      1.0  0.37734  0.84608  0.06362  1.0000
  Ti  Ti62      1.0  0.33370  0.38611  0.34468  1.0000
  Ti  Ti63      1.0  0.17761  0.92843  0.58133  1.0000
  Ti  Ti64      1.0  0.83728  0.59504  0.59399  1.0000
  Ti  Ti65      1.0  0.97676  0.55968  0.91806  1.0000
  Ti  Ti66      1.0  0.44577  0.26598  0.62832  1.0000
  Ti  Ti67      1.0  0.86413  0.94023  0.42240  1.0000
  Ti  Ti68      1.0  0.24460  0.13114  0.67994  1.0000
  Ti  Ti69      1.0  0.82739  0.23811  0.24482  1.0000
  Ti  Ti70      1.0  0.65153  0.64474  0.11658  1.0000
  Ti  Ti71      1.0  0.74315  0.86714  0.02021  1.0000
  Ti  Ti72      1.0  0.89967  0.95287  0.02838  1.0000
  Ti  Ti73      1.0  0.15841  0.59175  0.88296  1.0000
  Ti  Ti74      1.0  0.21697  0.38673  0.70101  1.0000
  Ti  Ti75      1.0  0.00777  0.17610  0.24399  1.0000
  Ti  Ti76      1.0  0.97178  0.35792  0.35778  1.0000
  Ti  Ti77      1.0  0.67080  0.46182  0.29215  1.0000
  Ti  Ti78      1.0  0.02904  0.00946  0.09985  1.0000
  Ti  Ti79      1.0  0.30178  0.89210  0.36706  1.0000
  Ti  Ti80      1.0  0.72044  0.42411  0.55373  1.0000
  Ti  Ti81      1.0  0.68846  0.10249  0.08969  1.0000
  Ti  Ti82      1.0  0.67860  0.73205  0.78288  1.0000
  Ti  Ti83      1.0  0.85725  0.40328  0.73399  1.0000
  Ti  Ti84      1.0  0.04125  0.47221  0.41554  1.0000
  Ti  Ti85      1.0  0.05654  0.28025  0.67905  1.0000
  Ti  Ti86      1.0  0.40555  0.33590  0.69623  1.0000
  Ti  Ti87      1.0  0.46660  0.31910  0.07413  1.0000
  Ti  Ti88      1.0  0.74695  0.76221  0.38933  1.0000
  Ti  Ti89      1.0  0.46934  0.67550  0.52051  1.0000
  Ti  Ti90      1.0  0.76170  0.95815  0.80856  1.0000
  Ti  Ti91      1.0  0.36268  0.73253  0.80213  1.0000
  Ti  Ti92      1.0  0.86619  0.19214  0.56915  1.0000
  Ti  Ti93      1.0  0.82269  0.60126  0.09970  1.0000
  Ti  Ti94      1.0  0.45818  0.55507  0.55573  1.0000
  Ti  Ti95      1.0  0.20702  0.14144  0.91573  1.0000
  Ti  Ti96      1.0  0.92141  0.15662  0.96700  1.0000
  I   I1        1.0  0.91155  0.16040  0.05702  1.0000
  I   I2        1.0  0.48650  0.21177  0.36837  1.0000
  I   I3        1.0  0.61552  0.97816  0.60263  1.0000
  I   I4        1.0  0.22001  0.69258  0.02355  1.0000
  I   I5        1.0  0.43433  0.16284  0.67259  1.0000
  I   I6        1.0  0.36818  0.18087  0.63002  1.0000
  I   I7        1.0  0.32019  0.61173  0.32932  1.0000
  I   I8        1.0  0.25650  0.62980  0.26293  1.0000
  I   I9        1.0  0.21677  0.92179  0.97886  1.0000
  I   I10       1.0  0.96177  0.82390  0.96452  1.0000
  I   I11       1.0  0.30980  0.55048  0.96439  1.0000
  I   I12       1.0  0.24175  0.80002  0.02266  1.0000
  I   I13       1.0  0.34488  0.41703  0.38410  1.0000
  I   I14       1.0  0.19845  0.89264  0.52479  1.0000
  I   I15       1.0  0.38303  0.89391  0.21365  1.0000
  I   I16       1.0  0.90604  0.67738  0.93515  1.0000
  I   I17       1.0  0.42292  0.25256  0.56839  1.0000
  I   I18       1.0  0.85297  0.56014  0.53747  1.0000
  I   I19       1.0  0.24354  0.08725  0.68675  1.0000
  I   I20       1.0  0.37403  0.53383  0.94778  1.0000
  I   I21       1.0  0.78747  0.27389  0.31820  1.0000
  I   I22       1.0  0.78138  0.86959  0.99047  1.0000
  I   I23       1.0  0.70963  0.85142  0.01396  1.0000
  I   I24       1.0  0.62495  0.61808  0.14535  1.0000
  I   I25       1.0  0.22181  0.41856  0.75084  1.0000
  I   I26       1.0  0.06837  0.23381  0.25812  1.0000
  I   I27       1.0  0.17782  0.60856  0.80962  1.0000
  I   I28       1.0  0.71192  0.45931  0.26538  1.0000
  I   I29       1.0  0.07555  0.97850  0.13818  1.0000
  I   I30       1.0  0.00820  0.33807  0.41123  1.0000
  I   I31       1.0  0.71097  0.46475  0.51078  1.0000
  I   I32       1.0  0.73222  0.07148  0.08846  1.0000
  I   I33       1.0  0.28896  0.90803  0.44920  1.0000
  I   I34       1.0  0.84915  0.45046  0.72508  1.0000
  I   I35       1.0  0.03845  0.47786  0.49984  1.0000
  I   I36       1.0  0.64559  0.70077  0.63885  1.0000
  I   I37       1.0  0.96414  0.32726  0.62004  1.0000
  I   I38       1.0  0.48158  0.26680  0.09249  1.0000
  I   I39       1.0  0.06171  0.27170  0.58165  1.0000
  I   I40       1.0  0.42737  0.71046  0.54917  1.0000
  I   I41       1.0  0.79814  0.93513  0.75773  1.0000
  I   I42       1.0  0.74719  0.71660  0.49133  1.0000
  I   I43       1.0  0.40062  0.09342  0.96341  1.0000
  I   I44       1.0  0.85849  0.55634  0.06273  1.0000
  I   I45       1.0  0.35466  0.78480  0.84027  1.0000
  I   I46       1.0  0.16381  0.21295  0.04415  1.0000
  I   I47       1.0  0.92730  0.15272  0.86019  1.0000
  I   I48       1.0  0.44501  0.52046  0.53608  1.0000
  I   I49       1.0  0.68110  0.88397  0.59939  1.0000
  I   I50       1.0  0.53914  0.13705  0.33093  1.0000
  I   I51       1.0  0.49617  0.14018  0.17209  1.0000
  I   I52       1.0  0.49587  0.49614  0.84860  1.0000
  I   I53       1.0  0.17021  0.82647  0.04675  1.0000
  I   I54       1.0  0.34213  0.18506  0.53235  1.0000
  I   I55       1.0  0.03469  0.88228  0.78151  1.0000
  I   I56       1.0  0.25923  0.60105  0.38114  1.0000
  I   I57       1.0  0.25182  0.90281  0.87355  1.0000
  I   I58       1.0  0.97337  0.79800  0.82916  1.0000
  I   I59       1.0  0.91765  0.86137  0.87853  1.0000
  I   I60       1.0  0.21585  0.62492  0.50757  1.0000
  I   I61       1.0  0.32609  0.34767  0.31789  1.0000
  I   I62       1.0  0.29749  0.41497  0.28856  1.0000
  I   I63       1.0  0.11560  0.99178  0.48512  1.0000
  I   I64       1.0  0.89283  0.67194  0.79234  1.0000
  I   I65       1.0  0.02313  0.54247  0.92086  1.0000
  I   I66       1.0  0.43481  0.24102  0.68538  1.0000
  I   I67       1.0  0.81999  0.97546  0.42445  1.0000
  I   I68       1.0  0.21565  0.08300  0.57923  1.0000
  I   I69       1.0  0.79416  0.23230  0.17480  1.0000
  I   I70       1.0  0.69630  0.62636  0.13217  1.0000
  I   I71       1.0  0.70759  0.80107  0.97085  1.0000
  I   I72       1.0  0.86276  0.94479  0.01506  1.0000
  I   I73       1.0  0.08921  0.68625  0.81153  1.0000
  I   I74       1.0  0.05307  0.16107  0.29079  1.0000
  I   I75       1.0  0.03201  0.20567  0.21118  1.0000
  I   I76       1.0  0.67934  0.43421  0.36258  1.0000
  I   I77       1.0  0.64059  0.51139  0.25925  1.0000
  I   I78       1.0  0.04081  0.96588  0.25372  1.0000
  I   I79       1.0  0.30064  0.92704  0.31949  1.0000
  I   I80       1.0  0.67331  0.37764  0.54558  1.0000
  I   I81       1.0  0.69240  0.03821  0.00507  1.0000
  I   I82       1.0  0.63309  0.76951  0.64483  1.0000
  I   I83       1.0  0.86451  0.37175  0.79897  1.0000
  I   I84       1.0  0.06299  0.57646  0.41449  1.0000
  I   I85       1.0  0.03791  0.32929  0.62043  1.0000
  I   I86       1.0  0.37005  0.34488  0.75509  1.0000
  I   I87       1.0  0.41174  0.31354  0.06587  1.0000
  I   I88       1.0  0.73300  0.72179  0.35142  1.0000
  I   I89       1.0  0.47278  0.71653  0.46157  1.0000
  I   I90       1.0  0.73348  0.99691  0.75392  1.0000
  I   I91       1.0  0.40112  0.73779  0.78405  1.0000
  I   I92       1.0  0.87947  0.17295  0.49256  1.0000
  I   I93       1.0  0.78318  0.59540  0.12210  1.0000
  I   I94       1.0  0.45176  0.50948  0.40505  1.0000
  I   I95       1.0  0.20045  0.13074  0.99788  1.0000
  I   I96       1.0  0.94427  0.10957  0.95949  1.0000
  I   I97       1.0  0.08187  0.47339  0.10529  1.0000
  I   I98       1.0  0.65919  0.93992  0.52135  1.0000
  I   I99       1.0  0.54347  0.08253  0.24496  1.0000
  I   I100      1.0  0.47704  0.43440  0.73117  1.0000
  I   I101      1.0  0.46401  0.55418  0.76199  1.0000
  I   I102      1.0  0.19338  0.81164  0.92784  1.0000
  I   I103      1.0  0.98476  0.87608  0.72263  1.0000
  I   I104      1.0  0.10023  0.86506  0.73108  1.0000
  I   I105      1.0  0.24025  0.97882  0.77767  1.0000
  I   I106      1.0  0.20963  0.57298  0.58927  1.0000
  I   I107      1.0  0.90300  0.83534  0.01705  1.0000
  I   I108      1.0  0.24834  0.63208  0.61332  1.0000
  I   I109      1.0  0.34010  0.84038  0.05725  1.0000
  I   I110      1.0  0.32235  0.31439  0.42980  1.0000
  I   I111      1.0  0.14599  0.02787  0.57808  1.0000
  I   I112      1.0  0.86808  0.60849  0.61994  1.0000
  I   I113      1.0  0.96771  0.52443  0.89546  1.0000
  I   I114      1.0  0.16920  0.27070  0.21360  1.0000
  I   I115      1.0  0.96143  0.89191  0.53922  1.0000
  I   I116      1.0  0.84958  0.91640  0.37026  1.0000
  I   I117      1.0  0.27328  0.14353  0.63617  1.0000
  I   I118      1.0  0.63926  0.69023  0.10207  1.0000
  I   I119      1.0  0.57293  0.72022  0.17729  1.0000
  I   I120      1.0  0.94639  0.92614  0.02426  1.0000
  I   I121      1.0  0.19565  0.58461  0.93363  1.0000
  I   I122      1.0  0.23432  0.34092  0.61100  1.0000
  I   I123      1.0  0.09484  0.18617  0.35178  1.0000
  I   I124      1.0  0.90967  0.46564  0.42708  1.0000
  I   I125      1.0  0.62031  0.55710  0.37991  1.0000
  I   I126      1.0  0.99637  0.05766  0.10007  1.0000
  I   I127      1.0  0.34597  0.85584  0.31602  1.0000
  I   I128      1.0  0.65322  0.40843  0.67293  1.0000
  I   I129      1.0  0.69560  0.13195  0.02991  1.0000
  I   I130      1.0  0.01266  0.55227  0.47048  1.0000
  I   I131      1.0  0.66705  0.69579  0.74966  1.0000
  I   I132      1.0  0.81338  0.41624  0.74187  1.0000
  I   I133      1.0  0.47888  0.28924  0.99121  1.0000
  I   I134      1.0  0.39570  0.44075  0.72045  1.0000
  I   I135      1.0  0.37218  0.37682  0.63924  1.0000
  I   I136      1.0  0.70771  0.98590  0.64613  1.0000
  I   I137      1.0  0.72131  0.79526  0.33051  1.0000
  I   I138      1.0  0.49445  0.65338  0.33374  1.0000
  I   I139      1.0  0.36989  0.76768  0.95437  1.0000
  I   I140      1.0  0.81978  0.22368  0.57403  1.0000
  I   I141      1.0  0.84413  0.57907  0.18328  1.0000
  I   I142      1.0  0.43673  0.57924  0.63185  1.0000
  I   I143      1.0  0.24971  0.10952  0.87337  1.0000
  I   I144      1.0  0.97806  0.20434  0.89033  1.0000
  I   I145      1.0  0.66337  0.93829  0.68457  1.0000
  I   I146      1.0  0.47941  0.11418  0.27043  1.0000
  I   I147      1.0  0.00902  0.48963  0.14523  1.0000
  I   I148      1.0  0.51997  0.46924  0.73993  1.0000
  I   I149      1.0  0.20342  0.75146  0.98902  1.0000
  I   I150      1.0  0.42066  0.12218  0.60213  1.0000
  I   I151      1.0  0.11266  0.80552  0.68164  1.0000
  I   I152      1.0  0.26256  0.57206  0.27044  1.0000
  I   I153      1.0  0.30430  0.91374  0.76961  1.0000
  I   I154      1.0  0.38453  0.06186  0.07421  1.0000
  I   I155      1.0  0.32614  0.54512  0.82204  1.0000
  I   I156      1.0  0.16941  0.67573  0.56679  1.0000
  I   I157      1.0  0.38368  0.93306  0.11353  1.0000
  I   I158      1.0  0.20482  0.89978  0.64568  1.0000
  I   I159      1.0  0.39740  0.84013  0.14367  1.0000
  I   I160      1.0  0.82040  0.62172  0.52306  1.0000
  I   I161      1.0  0.10281  0.30469  0.17661  1.0000
  I   I162      1.0  0.80483  0.58160  0.73285  1.0000
  I   I163      1.0  0.88221  0.96280  0.37568  1.0000
  I   I164      1.0  0.22077  0.14865  0.75246  1.0000
  I   I165      1.0  0.86825  0.20248  0.21892  1.0000
  I   I166      1.0  0.58731  0.67425  0.08501  1.0000
  I   I167      1.0  0.75924  0.80271  0.89905  1.0000
  I   I168      1.0  0.26587  0.79387  0.51941  1.0000
  I   I169      1.0  0.26940  0.35642  0.70666  1.0000
  I   I170      1.0  0.21723  0.35071  0.75035  1.0000
  I   I171      1.0  0.12018  0.63751  0.87507  1.0000
  I   I172      1.0  0.88763  0.41657  0.39006  1.0000
  I   I173      1.0  0.06089  0.00766  0.03531  1.0000
  I   I174      1.0  0.93602  0.34842  0.34190  1.0000
  I   I175      1.0  0.66978  0.43431  0.56034  1.0000
  I   I176      1.0  0.67098  0.13490  0.15268  1.0000
  I   I177      1.0  0.35163  0.88111  0.41323  1.0000
  I   I178      1.0  0.65484  0.75471  0.85011  1.0000
  I   I179      1.0  0.91512  0.33813  0.72436  1.0000
  I   I180      1.0  0.07747  0.45723  0.36112  1.0000
  I   I181      1.0  0.02328  0.25671  0.64376  1.0000
  I   I182      1.0  0.39550  0.30230  0.64968  1.0000
  I   I183      1.0  0.43799  0.26720  0.94736  1.0000
  I   I184      1.0  0.70279  0.76676  0.42945  1.0000
  I   I185      1.0  0.49663  0.64709  0.45219  1.0000
  I   I186      1.0  0.77322  0.98971  0.84958  1.0000
  I   I187      1.0  0.86813  0.16023  0.62956  1.0000
  I   I188      1.0  0.80565  0.65425  0.13697  1.0000
  I   I189      1.0  0.40180  0.68659  0.88836  1.0000
  I   I190      1.0  0.18151  0.24293  0.92910  1.0000
  I   I191      1.0  0.57057  0.14364  0.60778  1.0000
  I   I192      1.0  0.48621  0.53379  0.47548  1.0000
  I   I193      1.0  0.61386  0.91746  0.63731  1.0000
  I   I194      1.0  0.63663  0.14777  0.58565  1.0000
  I   I195      1.0  0.04925  0.42758  0.06579  1.0000
  I   I196      1.0  0.43892  0.50400  0.79601  1.0000
  I   I197      1.0  0.32158  0.14745  0.86057  1.0000
  I   I198      1.0  0.34979  0.13936  0.63264  1.0000
  I   I199      1.0  0.09675  0.85390  0.59831  1.0000
  I   I200      1.0  0.32248  0.57735  0.23876  1.0000
  I   I201      1.0  0.24026  0.91966  0.74861  1.0000
  I   I202      1.0  0.97286  0.75867  0.93210  1.0000
  I   I203      1.0  0.75233  0.30229  0.21683  1.0000
  I   I204      1.0  0.21433  0.68845  0.68234  1.0000
  I   I205      1.0  0.36759  0.37619  0.28582  1.0000
  I   I206      1.0  0.19082  0.95643  0.52738  1.0000
  I   I207      1.0  0.38061  0.86923  0.99045  1.0000
  I   I208      1.0  0.89926  0.72585  0.82992  1.0000
  I   I209      1.0  0.11520  0.33538  0.30357  1.0000
  I   I210      1.0  0.78049  0.57993  0.60769  1.0000
  I   I211      1.0  0.91333  0.90095  0.45177  1.0000
  I   I212      1.0  0.15208  0.13984  0.60723  1.0000
  I   I213      1.0  0.85787  0.24470  0.30120  1.0000
  I   I214      1.0  0.66047  0.63216  0.02842  1.0000
  I   I215      1.0  0.68308  0.85229  0.86593  1.0000
  I   I216      1.0  0.33642  0.74985  0.55957  1.0000
  I   I217      1.0  0.29987  0.29137  0.71560  1.0000
  I   I218      1.0  0.99084  0.14732  0.27102  1.0000
  I   I219      1.0  0.13565  0.57734  0.93919  1.0000
  I   I220      1.0  0.63444  0.49914  0.43992  1.0000
  I   I221      1.0  0.98752  0.97536  0.18221  1.0000
  I   I222      1.0  0.94636  0.37669  0.43744  1.0000
  I   I223      1.0  0.73151  0.39407  0.63132  1.0000
  I   I224      1.0  0.64710  0.10473  0.03800  1.0000
  I   I225      1.0  0.35608  0.79840  0.37637  1.0000
  I   I226      1.0  0.71296  0.69622  0.82679  1.0000
  I   I227      1.0  0.95668  0.35713  0.80684  1.0000
  I   I228      1.0  0.08817  0.51549  0.35687  1.0000
  I   I229      1.0  0.09345  0.28704  0.65703  1.0000
  I   I230      1.0  0.42068  0.40862  0.59672  1.0000
  I   I231      1.0  0.51321  0.31287  0.08196  1.0000
  I   I232      1.0  0.73431  0.67106  0.41354  1.0000
  I   I233      1.0  0.44210  0.71965  0.34638  1.0000
  I   I234      1.0  0.76839  0.92350  0.62507  1.0000
  I   I235      1.0  0.31799  0.09320  0.04205  1.0000
  I   I236      1.0  0.86681  0.61144  0.10549  1.0000
  I   I237      1.0  0.42464  0.73472  0.89051  1.0000
  I   I238      1.0  0.12893  0.22456  0.93087  1.0000
  I   I239      1.0  0.96930  0.15047  0.95046  1.0000
  I   I240      1.0  0.50103  0.53244  0.59002  1.0000
  I   I241      1.0  0.60062  0.00238  0.48412  1.0000
  I   I242      1.0  0.46694  0.16403  0.42678  1.0000
  I   I243      1.0  0.06618  0.42966  0.19915  1.0000
  I   I244      1.0  0.46827  0.50166  0.68501  1.0000
  I   I245      1.0  0.15289  0.74982  0.06118  1.0000
  I   I246      1.0  0.37556  0.17116  0.75597  1.0000
  I   I247      1.0  0.04546  0.83816  0.66856  1.0000
  I   I248      1.0  0.19053  0.59857  0.37607  1.0000
  I   I249      1.0  0.22971  0.98345  0.93112  1.0000
  I   I250      1.0  0.90886  0.76564  0.99773  1.0000
  I   I251      1.0  0.32957  0.59944  0.92400  1.0000
  I   I252      1.0  0.26965  0.56450  0.56621  1.0000
  I   I253      1.0  0.38384  0.30817  0.39585  1.0000
  I   I254      1.0  0.12852  0.94367  0.59618  1.0000
  I   I255      1.0  0.43108  0.86517  0.06650  1.0000
  I   I256      1.0  0.95590  0.59608  0.87073  1.0000
  I   I257      1.0  0.11395  0.26594  0.29088  1.0000
  I   I258      1.0  0.86669  0.55338  0.65396  1.0000
  I   I259      1.0  0.90861  0.95311  0.59636  1.0000
  I   I260      1.0  0.28492  0.10421  0.72771  1.0000
  I   I261      1.0  0.73796  0.24928  0.25519  1.0000
  I   I262      1.0  0.57778  0.67167  0.24936  1.0000
  I   I263      1.0  0.73263  0.86759  0.92675  1.0000
  I   I264      1.0  0.28696  0.74143  0.62436  1.0000
  I   I265      1.0  0.16790  0.41208  0.70772  1.0000
  I   I266      1.0  0.97997  0.21199  0.29563  1.0000
  I   I267      1.0  0.09046  0.63169  0.75489  1.0000
  I   I268      1.0  0.60592  0.48975  0.35270  1.0000
  I   I269      1.0  0.00118  0.99057  0.07936  1.0000
  I   I270      1.0  0.00467  0.34408  0.29623  1.0000
  I   I271      1.0  0.76756  0.40353  0.54572  1.0000
  I   I272      1.0  0.61448  0.06568  0.07597  1.0000
  I   I273      1.0  0.34015  0.84813  0.48494  1.0000
  I   I274      1.0  0.69229  0.72564  0.68404  1.0000
  I   I275      1.0  0.92591  0.32233  0.85200  1.0000
  I   I276      1.0  0.07934  0.51921  0.49012  1.0000
  I   I277      1.0  0.00864  0.31257  0.52800  1.0000
  I   I278      1.0  0.41735  0.37473  0.71553  1.0000
  I   I279      1.0  0.43122  0.24908  0.06254  1.0000
  I   I280      1.0  0.79009  0.74102  0.35359  1.0000
  I   I281      1.0  0.43702  0.67064  0.42692  1.0000
  I   I282      1.0  0.76543  0.98723  0.62566  1.0000
  I   I283      1.0  0.35193  0.12954  0.04360  1.0000
  I   I284      1.0  0.81051  0.63125  0.25371  1.0000
  I   I285      1.0  0.33681  0.73270  0.88420  1.0000
  I   I286      1.0  0.18373  0.18372  0.87813  1.0000
  I   I287      1.0  0.87385  0.16549  0.95755  1.0000
  I   I288      1.0  0.48850  0.44472  0.49185  1.0000
  I   I289      1.0  0.56927  0.96726  0.57957  1.0000
  I   I290      1.0  0.62855  0.09927  0.69410  1.0000
  I   I291      1.0  0.48463  0.17536  0.27635  1.0000
  I   I292      1.0  0.54270  0.41307  0.68223  1.0000
  I   I293      1.0  0.20590  0.70726  0.15233  1.0000
  I   I294      1.0  0.41841  0.10849  0.73842  1.0000
  I   I295      1.0  0.97276  0.93908  0.70409  1.0000
  I   I296      1.0  0.25386  0.53535  0.38574  1.0000
  I   I297      1.0  0.28308  0.94334  0.88376  1.0000
  I   I298      1.0  0.33322  0.09063  0.93468  1.0000
  I   I299      1.0  0.90816  0.80158  0.89414  1.0000
  I   I300      1.0  0.19181  0.63686  0.64871  1.0000
  I   I301      1.0  0.35375  0.89434  0.09898  1.0000
  I   I302      1.0  0.29548  0.39392  0.40292  1.0000
  I   I303      1.0  0.09826  0.00946  0.57300  1.0000
  I   I304      1.0  0.83791  0.51788  0.67742  1.0000
  I   I305      1.0  0.96079  0.66283  0.81809  1.0000
  I   I306      1.0  0.44344  0.30779  0.74497  1.0000
  I   I307      1.0  0.90476  0.88857  0.57842  1.0000
  I   I308      1.0  0.18213  0.09129  0.68078  1.0000
  I   I309      1.0  0.81329  0.27645  0.19455  1.0000
  I   I310      1.0  0.63875  0.66748  0.20820  1.0000
  I   I311      1.0  0.72268  0.91323  0.04154  1.0000
  I   I312      1.0  0.88935  0.99689  0.99882  1.0000
  I   I313      1.0  0.13495  0.58513  0.80413  1.0000
  I   I314      1.0  0.23447  0.29267  0.68057  1.0000
  I   I315      1.0  0.11497  0.16173  0.23249  1.0000
  I   I316      1.0  0.91723  0.44623  0.30573  1.0000
  I   I317      1.0  0.68662  0.48928  0.35269  1.0000
  I   I318      1.0  0.00846  0.02226  0.18618  1.0000
  I   I319      1.0  0.29573  0.83372  0.42012  1.0000
  I   I320      1.0  0.72412  0.39957  0.47678  1.0000
  I   I321      1.0  0.67597  0.00642  0.10890  1.0000
  I   I322      1.0  0.60512  0.75034  0.73726  1.0000
  I   I323      1.0  0.89852  0.41092  0.77960  1.0000
  I   I324      1.0  0.00749  0.46613  0.38149  1.0000
  I   I325      1.0  0.07900  0.24429  0.73226  1.0000
  I   I326      1.0  0.44412  0.31269  0.62168  1.0000
  I   I327      1.0  0.46340  0.32410  0.15757  1.0000
  I   I328      1.0  0.67514  0.72066  0.44250  1.0000
  I   I329      1.0  0.50842  0.67170  0.55679  1.0000
  I   I330      1.0  0.73672  0.93983  0.74740  1.0000
  I   I331      1.0  0.33013  0.75825  0.74789  1.0000
  I   I332      1.0  0.37716  0.15200  0.90842  1.0000
  I   I333      1.0  0.80001  0.63273  0.03612  1.0000
  I   I334      1.0  0.43658  0.60293  0.52762  1.0000
  I   I335      1.0  0.22451  0.16938  0.95568  1.0000
  I   I336      1.0  0.92603  0.20310  0.81640  1.0000
  I   I337      1.0  0.61112  0.91870  0.49424  1.0000
  I   I338      1.0  0.62575  0.08534  0.57338  1.0000
  I   I339      1.0  0.53732  0.15930  0.43555  1.0000
  I   I340      1.0  0.51145  0.45504  0.59554  1.0000
  I   I341      1.0  0.20478  0.77209  0.09761  1.0000
  I   I342      1.0  0.38073  0.09738  0.54972  1.0000
  I   I343      1.0  0.03557  0.90645  0.64125  1.0000
  I   I344      1.0  0.21752  0.55039  0.29580  1.0000
  I   I345      1.0  0.27621  0.91500  0.00561  1.0000
  I   I346      1.0  0.38561  0.09566  0.84412  1.0000
  I   I347      1.0  0.95401  0.77854  0.05128  1.0000
  I   I348      1.0  0.22535  0.69012  0.54798  1.0000
  I   I349      1.0  0.40668  0.80574  0.01807  1.0000
  I   I350      1.0  0.34089  0.36211  0.48192  1.0000
  I   I351      1.0  0.16728  0.96622  0.64566  1.0000
  I   I352      1.0  0.80218  0.62184  0.64833  1.0000
  I   I353      1.0  0.95714  0.56511  0.99714  1.0000
  I   I354      1.0  0.48994  0.24570  0.60207  1.0000
  I   I355      1.0  0.86341  0.94457  0.51246  1.0000
  I   I356      1.0  0.21039  0.15023  0.60179  1.0000
  I   I357      1.0  0.80920  0.21271  0.29844  1.0000
  I   I358      1.0  0.29195  0.80984  0.63638  1.0000
  I   I359      1.0  0.75673  0.85000  0.10047  1.0000
  I   I360      1.0  0.89685  0.96673  0.11241  1.0000
  I   I361      1.0  0.13922  0.66775  0.72891  1.0000
  I   I362      1.0  0.21038  0.41361  0.62690  1.0000
  I   I363      1.0  0.98305  0.18347  0.17141  1.0000
  I   I364      1.0  0.97054  0.40854  0.36357  1.0000
  I   I365      1.0  0.66801  0.43515  0.23311  1.0000
  I   I366      1.0  0.05416  0.92249  0.15005  1.0000
  I   I367      1.0  0.27333  0.88324  0.31916  1.0000
  I   I368      1.0  0.70815  0.34771  0.66517  1.0000
  I   I369      1.0  0.67243  0.07197  0.13504  1.0000
  I   I370      1.0  0.68223  0.77197  0.75469  1.0000
  I   I371      1.0  0.86624  0.39842  0.65084  1.0000
  I   I372      1.0  0.02576  0.51702  0.37650  1.0000
  I   I373      1.0  0.01937  0.30630  0.72831  1.0000
  I   I374      1.0  0.35191  0.44399  0.62976  1.0000
  I   I375      1.0  0.45068  0.36292  0.03811  1.0000
  I   I376      1.0  0.75492  0.78362  0.45481  1.0000
  I   I377      1.0  0.46162  0.64051  0.55310  1.0000
  I   I378      1.0  0.75756  0.92870  0.86696  1.0000
  I   I379      1.0  0.38398  0.69412  0.74861  1.0000
  I   I380      1.0  0.88814  0.21549  0.59322  1.0000
  I   I381      1.0  0.87925  0.62737  0.21861  1.0000
  I   I382      1.0  0.52791  0.47134  0.43884  1.0000
  I   I383      1.0  0.18368  0.12713  0.85762  1.0000
  I   I384      1.0  0.90928  0.20469  0.93545  1.0000
