data_image0
_chemical_formula_structural       Ti96I384
_chemical_formula_sum              "Ti96 I384"
_cell_length_a       49.7736
_cell_length_b       49.4656
_cell_length_c       24.1475
_cell_angle_alpha    88.7757
_cell_angle_beta     88.7757
_cell_angle_gamma    62.1586

_space_group_name_H-M_alt    "P 1"
_space_group_IT_number       1

loop_
  _space_group_symop_operation_xyz
  'x, y, z'

loop_
  _atom_site_type_symbol
  _atom_site_label
  _atom_site_symmetry_multiplicity
  _atom_site_fract_x
  _atom_site_fract_y
  _atom_site_fract_z
  _atom_site_occupancy
  Ti  Ti1       1.0  0.36990  0.96144  0.44051  1.0000
  Ti  Ti2       1.0  0.16151  0.03185  0.98625  1.0000
  Ti  Ti3       1.0  0.31918  0.92452  0.15733  1.0000
  Ti  Ti4       1.0  0.17134  0.13504  0.46625  1.0000
  Ti  Ti5       1.0  0.07152  0.38669  0.86064  1.0000
  Ti  Ti6       1.0  0.18453  0.22261  0.00454  1.0000
  Ti  Ti7       1.0  0.92620  0.69879  0.06917  1.0000
  Ti  Ti8       1.0  0.92835  0.93620  0.60009  1.0000
  Ti  Ti9       1.0  0.85540  0.87357  0.12597  1.0000
  Ti  Ti10      1.0  0.06557  0.85179  0.11685  1.0000
  Ti  Ti11      1.0  0.12633  0.78406  0.70177  1.0000
  Ti  Ti12      1.0  0.99012  0.75944  0.59910  1.0000
  Ti  Ti13      1.0  0.39595  0.15466  0.37443  1.0000
  Ti  Ti14      1.0  0.33375  0.04811  0.77358  1.0000
  Ti  Ti15      1.0  0.36599  0.08546  0.07180  1.0000
  Ti  Ti16      1.0  0.26161  0.64224  0.88111  1.0000
  Ti  Ti17      1.0  0.20910  0.65531  0.20105  1.0000
  Ti  Ti18      1.0  0.36850  0.42251  0.55543  1.0000
  Ti  Ti19      1.0  0.43388  0.68498  0.12636  1.0000
  Ti  Ti20      1.0  0.65203  0.57872  0.56625  1.0000
  Ti  Ti21      1.0  0.40528  0.67467  0.39058  1.0000
  Ti  Ti22      1.0  0.31958  0.86062  0.72064  1.0000
  Ti  Ti23      1.0  0.53694  0.88081  0.78550  1.0000
  Ti  Ti24      1.0  0.48083  0.73697  0.71656  1.0000
  Ti  Ti25      1.0  0.50388  0.27109  0.76154  1.0000
  Ti  Ti26      1.0  0.40666  0.33012  0.97646  1.0000
  Ti  Ti27      1.0  0.48065  0.26396  0.45399  1.0000
  Ti  Ti28      1.0  0.47568  0.39279  0.28445  1.0000
  Ti  Ti29      1.0  0.65899  0.40147  0.99303  1.0000
  Ti  Ti30      1.0  0.50059  0.52091  0.99368  1.0000
  Ti  Ti31      1.0  0.80984  0.56808  0.30711  1.0000
  Ti  Ti32      1.0  0.86340  0.45931  0.72215  1.0000
  Ti  Ti33      1.0  0.79563  0.54028  0.01417  1.0000
  Ti  Ti34      1.0  0.71049  0.84702  0.86745  1.0000
  Ti  Ti35      1.0  0.54552  0.74258  0.25359  1.0000
  Ti  Ti36      1.0  0.80774  0.67407  0.59027  1.0000
  Ti  Ti37      1.0  0.72764  0.17408  0.15408  1.0000
  Ti  Ti38      1.0  0.92510  0.12494  0.13618  1.0000
  Ti  Ti39      1.0  0.84418  0.12065  0.58155  1.0000
  Ti  Ti40      1.0  0.94145  0.32721  0.21297  1.0000
  Ti  Ti41      1.0  0.96608  0.21254  0.43109  1.0000
  Ti  Ti42      1.0  0.12571  0.98549  0.45539  1.0000
  Ti  Ti43      1.0  0.09139  0.40504  0.24163  1.0000
  Ti  Ti44      1.0  0.09475  0.51893  0.53535  1.0000
  Ti  Ti45      1.0  0.11126  0.55185  0.84181  1.0000
  Ti  Ti46      1.0  0.74349  0.99264  0.43031  1.0000
  Ti  Ti47      1.0  0.68646  0.01310  0.72887  1.0000
  Ti  Ti48      1.0  0.60603  0.08138  0.98841  1.0000
  Ti  Ti49      1.0  0.30871  0.95492  0.35143  1.0000
  Ti  Ti50      1.0  0.08063  0.07204  0.88069  1.0000
  Ti  Ti51      1.0  0.19413  0.00821  0.13475  1.0000
  Ti  Ti52      1.0  0.15345  0.20527  0.35153  1.0000
  Ti  Ti53      1.0  0.05962  0.39237  0.71349  1.0000
  Ti  Ti54      1.0  0.15182  0.20691  0.83298  1.0000
  Ti  Ti55      1.0  0.88005  0.79589  0.01384  1.0000
  Ti  Ti56      1.0  0.94722  0.94751  0.46323  1.0000
  Ti  Ti57      1.0  0.81694  0.95828  0.14111  1.0000
  Ti  Ti58      1.0  0.04018  0.93156  0.18680  1.0000
  Ti  Ti59      1.0  0.15706  0.83907  0.11042  1.0000
  Ti  Ti60      1.0  0.06521  0.76648  0.64882  1.0000
  Ti  Ti61      1.0  0.39168  0.11176  0.22333  1.0000
  Ti  Ti62      1.0  0.32619  0.22514  0.47278  1.0000
  Ti  Ti63      1.0  0.32827  0.10472  0.71750  1.0000
  Ti  Ti64      1.0  0.33980  0.38823  0.61313  1.0000
  Ti  Ti65      1.0  0.27518  0.61752  0.04017  1.0000
  Ti  Ti66      1.0  0.18741  0.62192  0.33837  1.0000
  Ti  Ti67      1.0  0.37915  0.74049  0.26845  1.0000
  Ti  Ti68      1.0  0.67784  0.58972  0.71897  1.0000
  Ti  Ti69      1.0  0.35304  0.69692  0.54696  1.0000
  Ti  Ti70      1.0  0.40034  0.80655  0.75807  1.0000
  Ti  Ti71      1.0  0.60686  0.85182  0.65362  1.0000
  Ti  Ti72      1.0  0.54675  0.84947  0.93935  1.0000
  Ti  Ti73      1.0  0.53586  0.20897  0.59735  1.0000
  Ti  Ti74      1.0  0.44138  0.24683  0.86360  1.0000
  Ti  Ti75      1.0  0.36488  0.35644  0.11864  1.0000
  Ti  Ti76      1.0  0.46193  0.61124  0.88027  1.0000
  Ti  Ti77      1.0  0.45460  0.46049  0.36574  1.0000
  Ti  Ti78      1.0  0.59202  0.46378  0.95868  1.0000
  Ti  Ti79      1.0  0.85694  0.53769  0.15393  1.0000
  Ti  Ti80      1.0  0.86620  0.51737  0.42882  1.0000
  Ti  Ti81      1.0  0.85551  0.49748  0.86035  1.0000
  Ti  Ti82      1.0  0.71884  0.84818  0.99011  1.0000
  Ti  Ti83      1.0  0.65191  0.68834  0.23835  1.0000
  Ti  Ti84      1.0  0.82498  0.72264  0.46918  1.0000
  Ti  Ti85      1.0  0.66411  0.18847  0.24515  1.0000
  Ti  Ti86      1.0  0.82793  0.15196  0.14761  1.0000
  Ti  Ti87      1.0  0.75977  0.20938  0.58467  1.0000
  Ti  Ti88      1.0  0.96196  0.32332  0.06387  1.0000
  Ti  Ti89      1.0  0.91030  0.27198  0.51273  1.0000
  Ti  Ti90      1.0  0.13712  0.93202  0.50891  1.0000
  Ti  Ti91      1.0  0.10283  0.54105  0.99493  1.0000
  Ti  Ti92      1.0  0.05074  0.41416  0.36128  1.0000
  Ti  Ti93      1.0  0.04689  0.56818  0.69729  1.0000
  Ti  Ti94      1.0  0.58202  0.06468  0.13166  1.0000
  Ti  Ti95      1.0  0.67070  0.99578  0.53322  1.0000
  Ti  Ti96      1.0  0.59925  0.05322  0.81346  1.0000
  I   I1        1.0  0.07904  0.02685  0.82854  1.0000
  I   I2        1.0  0.14321  0.05323  0.09696  1.0000
  I   I3        1.0  0.28146  0.92761  0.30322  1.0000
  I   I4        1.0  0.02200  0.37475  0.67634  1.0000
  I   I5        1.0  0.14113  0.25753  0.78677  1.0000
  I   I6        1.0  0.14545  0.24300  0.08288  1.0000
  I   I7        1.0  0.92823  0.00100  0.41995  1.0000
  I   I8        1.0  0.89314  0.99383  0.62499  1.0000
  I   I9        1.0  0.90531  0.83581  0.06313  1.0000
  I   I10       1.0  0.09610  0.85167  0.01721  1.0000
  I   I11       1.0  0.11716  0.76147  0.58749  1.0000
  I   I12       1.0  0.05586  0.93109  0.29181  1.0000
  I   I13       1.0  0.33464  0.17182  0.40733  1.0000
  I   I14       1.0  0.38436  0.06200  0.77130  1.0000
  I   I15       1.0  0.40802  0.05719  0.15577  1.0000
  I   I16       1.0  0.31007  0.63943  0.99021  1.0000
  I   I17       1.0  0.23590  0.59629  0.24998  1.0000
  I   I18       1.0  0.31023  0.38004  0.69926  1.0000
  I   I19       1.0  0.68141  0.54279  0.77834  1.0000
  I   I20       1.0  0.30464  0.75140  0.57281  1.0000
  I   I21       1.0  0.40469  0.73093  0.37109  1.0000
  I   I22       1.0  0.58872  0.84249  0.56417  1.0000
  I   I23       1.0  0.48601  0.90501  0.73325  1.0000
  I   I24       1.0  0.45066  0.80809  0.71282  1.0000
  I   I25       1.0  0.50337  0.22006  0.83540  1.0000
  I   I26       1.0  0.37909  0.30316  0.06887  1.0000
  I   I27       1.0  0.59118  0.17135  0.54374  1.0000
  I   I28       1.0  0.42744  0.45679  0.25864  1.0000
  I   I29       1.0  0.61023  0.40379  0.91772  1.0000
  I   I30       1.0  0.49116  0.54217  0.88746  1.0000
  I   I31       1.0  0.85692  0.57156  0.35928  1.0000
  I   I32       1.0  0.85898  0.52451  0.76526  1.0000
  I   I33       1.0  0.83576  0.56976  0.04869  1.0000
  I   I34       1.0  0.59524  0.68547  0.21174  1.0000
  I   I35       1.0  0.76736  0.74341  0.50722  1.0000
  I   I36       1.0  0.70984  0.88100  0.07875  1.0000
  I   I37       1.0  0.78798  0.12240  0.15937  1.0000
  I   I38       1.0  0.70867  0.22920  0.52858  1.0000
  I   I39       1.0  0.67239  0.14929  0.32353  1.0000
  I   I40       1.0  0.92636  0.30646  0.57409  1.0000
  I   I41       1.0  0.10703  0.91276  0.43892  1.0000
  I   I42       1.0  0.98688  0.34851  0.13388  1.0000
  I   I43       1.0  0.11131  0.40456  0.37084  1.0000
  I   I44       1.0  0.05851  0.51726  0.63175  1.0000
  I   I45       1.0  0.07339  0.53139  0.90261  1.0000
  I   I46       1.0  0.71791  0.95384  0.46417  1.0000
  I   I47       1.0  0.64352  0.99480  0.77993  1.0000
  I   I48       1.0  0.58306  0.03575  0.02179  1.0000
  I   I49       1.0  0.33046  0.00157  0.36606  1.0000
  I   I50       1.0  0.12589  0.08814  0.95109  1.0000
  I   I51       1.0  0.25310  0.95622  0.14594  1.0000
  I   I52       1.0  0.12093  0.19276  0.45016  1.0000
  I   I53       1.0  0.01578  0.41793  0.80015  1.0000
  I   I54       1.0  0.15241  0.19408  0.94856  1.0000
  I   I55       1.0  0.84837  0.76777  0.99552  1.0000
  I   I56       1.0  0.96058  0.89395  0.51814  1.0000
  I   I57       1.0  0.83674  0.91150  0.02921  1.0000
  I   I58       1.0  0.04032  0.81843  0.09391  1.0000
  I   I59       1.0  0.16729  0.87378  0.03652  1.0000
  I   I60       1.0  0.02137  0.76407  0.70818  1.0000
  I   I61       1.0  0.36456  0.16790  0.26021  1.0000
  I   I62       1.0  0.29246  0.28350  0.45946  1.0000
  I   I63       1.0  0.35960  0.13615  0.71276  1.0000
  I   I64       1.0  0.21974  0.64353  0.82045  1.0000
  I   I65       1.0  0.22247  0.62303  0.08610  1.0000
  I   I66       1.0  0.18093  0.56934  0.34574  1.0000
  I   I67       1.0  0.37392  0.73777  0.15355  1.0000
  I   I68       1.0  0.62407  0.58578  0.67136  1.0000
  I   I69       1.0  0.34367  0.71314  0.43088  1.0000
  I   I70       1.0  0.34538  0.80194  0.77082  1.0000
  I   I71       1.0  0.56506  0.91036  0.71967  1.0000
  I   I72       1.0  0.54799  0.79833  0.97441  1.0000
  I   I73       1.0  0.48104  0.25692  0.64991  1.0000
  I   I74       1.0  0.38373  0.29618  0.89709  1.0000
  I   I75       1.0  0.36625  0.40777  0.11570  1.0000
  I   I76       1.0  0.45649  0.35122  0.27963  1.0000
  I   I77       1.0  0.47831  0.45448  0.46772  1.0000
  I   I78       1.0  0.55600  0.52300  0.99351  1.0000
  I   I79       1.0  0.85743  0.51146  0.24741  1.0000
  I   I80       1.0  0.86915  0.47052  0.48517  1.0000
  I   I81       1.0  0.85091  0.48069  0.97774  1.0000
  I   I82       1.0  0.69959  0.79667  0.88382  1.0000
  I   I83       1.0  0.54543  0.71569  0.34444  1.0000
  I   I84       1.0  0.82386  0.66725  0.47420  1.0000
  I   I85       1.0  0.72071  0.18131  0.26384  1.0000
  I   I86       1.0  0.86723  0.17840  0.14472  1.0000
  I   I87       1.0  0.87442  0.09015  0.66386  1.0000
  I   I88       1.0  0.90663  0.33347  0.10458  1.0000
  I   I89       1.0  0.01002  0.15839  0.45136  1.0000
  I   I90       1.0  0.16566  0.96194  0.55983  1.0000
  I   I91       1.0  0.13683  0.54536  0.07288  1.0000
  I   I92       1.0  0.01627  0.46323  0.41357  1.0000
  I   I93       1.0  0.06442  0.59943  0.78011  1.0000
  I   I94       1.0  0.52532  0.07697  0.16212  1.0000
  I   I95       1.0  0.63934  0.04712  0.60547  1.0000
  I   I96       1.0  0.56923  0.09642  0.89035  1.0000
  I   I97       1.0  0.33340  0.95304  0.23909  1.0000
  I   I98       1.0  0.35627  0.00539  0.50958  1.0000
  I   I99       1.0  0.20938  0.03066  0.02167  1.0000
  I   I100      1.0  0.17841  0.16378  0.27988  1.0000
  I   I101      1.0  0.13789  0.11350  0.51347  1.0000
  I   I102      1.0  0.06043  0.34487  0.91020  1.0000
  I   I103      1.0  0.83419  0.83722  0.06629  1.0000
  I   I104      1.0  0.93404  0.68299  0.96285  1.0000
  I   I105      1.0  0.76782  0.97808  0.08660  1.0000
  I   I106      1.0  0.99067  0.70877  0.64395  1.0000
  I   I107      1.0  0.12988  0.80547  0.15837  1.0000
  I   I108      1.0  0.09830  0.75142  0.74855  1.0000
  I   I109      1.0  0.44945  0.09557  0.20003  1.0000
  I   I110      1.0  0.36945  0.22054  0.38184  1.0000
  I   I111      1.0  0.37280  0.98948  0.75965  1.0000
  I   I112      1.0  0.40290  0.36570  0.61348  1.0000
  I   I113      1.0  0.22672  0.66461  0.97444  1.0000
  I   I114      1.0  0.15877  0.65039  0.23990  1.0000
  I   I115      1.0  0.38352  0.67882  0.28739  1.0000
  I   I116      1.0  0.49088  0.64301  0.11463  1.0000
  I   I117      1.0  0.63410  0.53890  0.54489  1.0000
  I   I118      1.0  0.42490  0.75155  0.69842  1.0000
  I   I119      1.0  0.28486  0.86691  0.81134  1.0000
  I   I120      1.0  0.51533  0.92418  0.86122  1.0000
  I   I121      1.0  0.52837  0.26221  0.51701  1.0000
  I   I122      1.0  0.44656  0.29562  0.78703  1.0000
  I   I123      1.0  0.34855  0.37189  0.98233  1.0000
  I   I124      1.0  0.46283  0.59356  0.99426  1.0000
  I   I125      1.0  0.49428  0.38514  0.18278  1.0000
  I   I126      1.0  0.60401  0.42785  0.05029  1.0000
  I   I127      1.0  0.81181  0.51950  0.12257  1.0000
  I   I128      1.0  0.80485  0.52924  0.41469  1.0000
  I   I129      1.0  0.81351  0.47982  0.80380  1.0000
  I   I130      1.0  0.78780  0.70115  0.68517  1.0000
  I   I131      1.0  0.71999  0.89425  0.91464  1.0000
  I   I132      1.0  0.66867  0.70910  0.32150  1.0000
  I   I133      1.0  0.78760  0.24223  0.60130  1.0000
  I   I134      1.0  0.77938  0.19983  0.18143  1.0000
  I   I135      1.0  0.93440  0.10953  0.24021  1.0000
  I   I136      1.0  0.10675  0.02867  0.53578  1.0000
  I   I137      1.0  0.98713  0.31725  0.27670  1.0000
  I   I138      1.0  0.97509  0.20827  0.32347  1.0000
  I   I139      1.0  0.10058  0.58877  0.92811  1.0000
  I   I140      1.0  0.04945  0.45887  0.27573  1.0000
  I   I141      1.0  0.09164  0.56150  0.61525  1.0000
  I   I142      1.0  0.54933  0.10980  0.04481  1.0000
  I   I143      1.0  0.70469  0.02706  0.51604  1.0000
  I   I144      1.0  0.64445  0.07251  0.78093  1.0000
  I   I145      1.0  0.37794  0.92215  0.34281  1.0000
  I   I146      1.0  0.10580  0.02383  0.97158  1.0000
  I   I147      1.0  0.30808  0.87740  0.15314  1.0000
  I   I148      1.0  0.20070  0.17066  0.42392  1.0000
  I   I149      1.0  0.08491  0.42304  0.78244  1.0000
  I   I150      1.0  0.20402  0.21581  0.89188  1.0000
  I   I151      1.0  0.89330  0.75647  0.11909  1.0000
  I   I152      1.0  0.89519  0.91445  0.64974  1.0000
  I   I153      1.0  0.88614  0.90318  0.16559  1.0000
  I   I154      1.0  0.01957  0.90948  0.09508  1.0000
  I   I155      1.0  0.18274  0.74054  0.72258  1.0000
  I   I156      1.0  0.08018  0.70434  0.63193  1.0000
  I   I157      1.0  0.40931  0.09847  0.32659  1.0000
  I   I158      1.0  0.30044  0.12498  0.81718  1.0000
  I   I159      1.0  0.32467  0.06715  0.07421  1.0000
  I   I160      1.0  0.29685  0.42185  0.54458  1.0000
  I   I161      1.0  0.26609  0.64516  0.15409  1.0000
  I   I162      1.0  0.33648  0.47919  0.51681  1.0000
  I   I163      1.0  0.44931  0.69859  0.22956  1.0000
  I   I164      1.0  0.64883  0.63513  0.78858  1.0000
  I   I165      1.0  0.40893  0.67710  0.50611  1.0000
  I   I166      1.0  0.37200  0.83154  0.64967  1.0000
  I   I167      1.0  0.57532  0.82906  0.71000  1.0000
  I   I168      1.0  0.48165  0.69391  0.77885  1.0000
  I   I169      1.0  0.55677  0.22891  0.69234  1.0000
  I   I170      1.0  0.45622  0.27462  0.95839  1.0000
  I   I171      1.0  0.49298  0.24512  0.35653  1.0000
  I   I172      1.0  0.47779  0.60476  0.77670  1.0000
  I   I173      1.0  0.66135  0.34897  0.02213  1.0000
  I   I174      1.0  0.53340  0.46094  0.97596  1.0000
  I   I175      1.0  0.80943  0.59516  0.21393  1.0000
  I   I176      1.0  0.91633  0.44146  0.67523  1.0000
  I   I177      1.0  0.79733  0.55856  0.88676  1.0000
  I   I178      1.0  0.76668  0.80537  0.91844  1.0000
  I   I179      1.0  0.59914  0.74808  0.25139  1.0000
  I   I180      1.0  0.76559  0.66140  0.56830  1.0000
  I   I181      1.0  0.70564  0.13532  0.14218  1.0000
  I   I182      1.0  0.81998  0.15432  0.03864  1.0000
  I   I183      1.0  0.82722  0.08302  0.54149  1.0000
  I   I184      1.0  0.91048  0.30533  0.25746  1.0000
  I   I185      1.0  0.94372  0.27707  0.41867  1.0000
  I   I186      1.0  0.16500  0.93185  0.40864  1.0000
  I   I187      1.0  0.05345  0.40569  0.16368  1.0000
  I   I188      1.0  0.07971  0.48148  0.49344  1.0000
  I   I189      1.0  0.10221  0.51773  0.75467  1.0000
  I   I190      1.0  0.79215  0.94143  0.39648  1.0000
  I   I191      1.0  0.69386  0.97237  0.65579  1.0000
  I   I192      1.0  0.64133  0.03447  0.91647  1.0000
  I   I193      1.0  0.42146  0.96651  0.40432  1.0000
  I   I194      1.0  0.17771  0.00733  0.88836  1.0000
  I   I195      1.0  0.31698  0.95111  0.06451  1.0000
  I   I196      1.0  0.20051  0.13046  0.56380  1.0000
  I   I197      1.0  0.05050  0.43278  0.92916  1.0000
  I   I198      1.0  0.22119  0.24527  0.03116  1.0000
  I   I199      1.0  0.90836  0.66093  0.10860  1.0000
  I   I200      1.0  0.97375  0.96610  0.54401  1.0000
  I   I201      1.0  0.80230  0.91230  0.18366  1.0000
  I   I202      1.0  0.04310  0.85949  0.22723  1.0000
  I   I203      1.0  0.14578  0.81272  0.61831  1.0000
  I   I204      1.0  0.99191  0.73674  0.50071  1.0000
  I   I205      1.0  0.44101  0.15991  0.33417  1.0000
  I   I206      1.0  0.27997  0.05869  0.74632  1.0000
  I   I207      1.0  0.33340  0.11732  0.98832  1.0000
  I   I208      1.0  0.26252  0.69292  0.84810  1.0000
  I   I209      1.0  0.17700  0.70511  0.15160  1.0000
  I   I210      1.0  0.35124  0.43882  0.66180  1.0000
  I   I211      1.0  0.40506  0.71223  0.03682  1.0000
  I   I212      1.0  0.73823  0.57026  0.73072  1.0000
  I   I213      1.0  0.39397  0.62715  0.40295  1.0000
  I   I214      1.0  0.28058  0.86191  0.64748  1.0000
  I   I215      1.0  0.59273  0.84527  0.86669  1.0000
  I   I216      1.0  0.50539  0.71151  0.62494  1.0000
  I   I217      1.0  0.51053  0.31860  0.71978  1.0000
  I   I218      1.0  0.42368  0.36175  0.90830  1.0000
  I   I219      1.0  0.42913  0.25980  0.46895  1.0000
  I   I220      1.0  0.52405  0.35609  0.34017  1.0000
  I   I221      1.0  0.71179  0.37779  0.93030  1.0000
  I   I222      1.0  0.50063  0.52855  0.11070  1.0000
  I   I223      1.0  0.77147  0.55042  0.27355  1.0000
  I   I224      1.0  0.86909  0.40471  0.71083  1.0000
  I   I225      1.0  0.75721  0.52056  0.99599  1.0000
  I   I226      1.0  0.66173  0.88476  0.80617  1.0000
  I   I227      1.0  0.50473  0.79786  0.27078  1.0000
  I   I228      1.0  0.85381  0.70007  0.57144  1.0000
  I   I229      1.0  0.67834  0.22988  0.15530  1.0000
  I   I230      1.0  0.95785  0.15382  0.12386  1.0000
  I   I231      1.0  0.80121  0.17219  0.50158  1.0000
  I   I232      1.0  0.91549  0.38677  0.23725  1.0000
  I   I233      1.0  0.89250  0.24534  0.58728  1.0000
  I   I234      1.0  0.07916  0.99582  0.39849  1.0000
  I   I235      1.0  0.12028  0.41791  0.16603  1.0000
  I   I236      1.0  0.10248  0.54547  0.45031  1.0000
  I   I237      1.0  0.16053  0.55048  0.79727  1.0000
  I   I238      1.0  0.70578  0.01970  0.35189  1.0000
  I   I239      1.0  0.70911  0.04872  0.69984  1.0000
  I   I240      1.0  0.61732  0.12643  0.97648  1.0000
  I   I241      1.0  0.40452  0.91511  0.50895  1.0000
  I   I242      1.0  0.17961  0.97243  0.05170  1.0000
  I   I243      1.0  0.37947  0.88300  0.14585  1.0000
  I   I244      1.0  0.20283  0.09449  0.39369  1.0000
  I   I245      1.0  0.13103  0.35284  0.86133  1.0000
  I   I246      1.0  0.21808  0.17314  0.05745  1.0000
  I   I247      1.0  0.97452  0.67344  0.13190  1.0000
  I   I248      1.0  0.97402  0.91679  0.66886  1.0000
  I   I249      1.0  0.87485  0.83963  0.22347  1.0000
  I   I250      1.0  0.09631  0.88898  0.15220  1.0000
  I   I251      1.0  0.13333  0.81301  0.78524  1.0000
  I   I252      1.0  0.93398  0.79162  0.62549  1.0000
  I   I253      1.0  0.41315  0.13551  0.47014  1.0000
  I   I254      1.0  0.33586  0.03985  0.88473  1.0000
  I   I255      1.0  0.40835  0.06289  0.99913  1.0000
  I   I256      1.0  0.30907  0.60977  0.80627  1.0000
  I   I257      1.0  0.20782  0.68218  0.30234  1.0000
  I   I258      1.0  0.41970  0.42637  0.54057  1.0000
  I   I259      1.0  0.40853  0.65145  0.12965  1.0000
  I   I260      1.0  0.62290  0.62067  0.49973  1.0000
  I   I261      1.0  0.46662  0.63962  0.39102  1.0000
  I   I262      1.0  0.32053  0.91068  0.69679  1.0000
  I   I263      1.0  0.52276  0.84178  0.84047  1.0000
  I   I264      1.0  0.52140  0.74438  0.77310  1.0000
  I   I265      1.0  0.53608  0.27245  0.84762  1.0000
  I   I266      1.0  0.43026  0.33865  0.06810  1.0000
  I   I267      1.0  0.45540  0.32430  0.45504  1.0000
  I   I268      1.0  0.50515  0.45455  0.31929  1.0000
  I   I269      1.0  0.69091  0.41412  0.06099  1.0000
  I   I270      1.0  0.45075  0.51339  0.00040  1.0000
  I   I271      1.0  0.77386  0.61922  0.35916  1.0000
  I   I272      1.0  0.82655  0.47545  0.63930  1.0000
  I   I273      1.0  0.75672  0.59681  0.05047  1.0000
  I   I274      1.0  0.73646  0.83751  0.76865  1.0000
  I   I275      1.0  0.50897  0.72492  0.21084  1.0000
  I   I276      1.0  0.85487  0.62153  0.61426  1.0000
  I   I277      1.0  0.73163  0.18869  0.04567  1.0000
  I   I278      1.0  0.97460  0.07847  0.08890  1.0000
  I   I279      1.0  0.89198  0.11287  0.52508  1.0000
  I   I280      1.0  0.98318  0.27698  0.15728  1.0000
  I   I281      1.0  0.97208  0.22667  0.54339  1.0000
  I   I282      1.0  0.15321  0.01397  0.41398  1.0000
  I   I283      1.0  0.12138  0.34682  0.26575  1.0000
  I   I284      1.0  0.15142  0.48159  0.54646  1.0000
  I   I285      1.0  0.15287  0.50960  0.91332  1.0000
  I   I286      1.0  0.77397  0.02306  0.43199  1.0000
  I   I287      1.0  0.73058  0.98362  0.80054  1.0000
  I   I288      1.0  0.63637  0.06411  0.07923  1.0000
  I   I289      1.0  0.30980  0.94576  0.45939  1.0000
  I   I290      1.0  0.02613  0.09529  0.92974  1.0000
  I   I291      1.0  0.16813  0.98751  0.21247  1.0000
  I   I292      1.0  0.09904  0.24383  0.31166  1.0000
  I   I293      1.0  0.06195  0.42168  0.61794  1.0000
  I   I294      1.0  0.19548  0.16333  0.77741  1.0000
  I   I295      1.0  0.94296  0.73985  0.01855  1.0000
  I   I296      1.0  0.98031  0.91622  0.37731  1.0000
  I   I297      1.0  0.79467  0.99312  0.22772  1.0000
  I   I298      1.0  0.04402  0.97774  0.14322  1.0000
  I   I299      1.0  0.19835  0.78673  0.06848  1.0000
  I   I300      1.0  0.02844  0.79160  0.56210  1.0000
  I   I301      1.0  0.33779  0.10994  0.22350  1.0000
  I   I302      1.0  0.34465  0.22162  0.57583  1.0000
  I   I303      1.0  0.28052  0.13300  0.65371  1.0000
  I   I304      1.0  0.35581  0.34012  0.55588  1.0000
  I   I305      1.0  0.31593  0.56612  0.08293  1.0000
  I   I306      1.0  0.13924  0.66582  0.38963  1.0000
  I   I307      1.0  0.38134  0.79396  0.25724  1.0000
  I   I308      1.0  0.70129  0.54682  0.51777  1.0000
  I   I309      1.0  0.32175  0.66560  0.54659  1.0000
  I   I310      1.0  0.38029  0.85428  0.81870  1.0000
  I   I311      1.0  0.64867  0.86479  0.60689  1.0000
  I   I312      1.0  0.49708  0.88883  0.99941  1.0000
  I   I313      1.0  0.52903  0.16870  0.65079  1.0000
  I   I314      1.0  0.44009  0.20533  0.92857  1.0000
  I   I315      1.0  0.38178  0.34547  0.21850  1.0000
  I   I316      1.0  0.47716  0.65046  0.92067  1.0000
  I   I317      1.0  0.43826  0.41257  0.39591  1.0000
  I   I318      1.0  0.57839  0.48649  0.85259  1.0000
  I   I319      1.0  0.88963  0.56880  0.16713  1.0000
  I   I320      1.0  0.86960  0.54405  0.51884  1.0000
  I   I321      1.0  0.89624  0.51271  0.89163  1.0000
  I   I322      1.0  0.66139  0.86926  0.97683  1.0000
  I   I323      1.0  0.67991  0.69797  0.15350  1.0000
  I   I324      1.0  0.84239  0.76574  0.48444  1.0000
  I   I325      1.0  0.64016  0.23476  0.31049  1.0000
  I   I326      1.0  0.88979  0.09404  0.10691  1.0000
  I   I327      1.0  0.78683  0.15054  0.62916  1.0000
  I   I328      1.0  0.00731  0.27652  0.00909  1.0000
  I   I329      1.0  0.91034  0.21671  0.40895  1.0000
  I   I330      1.0  0.17841  0.87567  0.54386  1.0000
  I   I331      1.0  0.12344  0.48585  0.04120  1.0000
  I   I332      1.0  0.07076  0.38032  0.46152  1.0000
  I   I333      1.0  0.00206  0.57690  0.76089  1.0000
  I   I334      1.0  0.58941  0.10834  0.18493  1.0000
  I   I335      1.0  0.65093  0.95448  0.55009  1.0000
  I   I336      1.0  0.56754  0.02398  0.83368  1.0000
  I   I337      1.0  0.25492  0.00552  0.36755  1.0000
  I   I338      1.0  0.08711  0.10169  0.79766  1.0000
  I   I339      1.0  0.20531  0.04586  0.19141  1.0000
  I   I340      1.0  0.17663  0.24163  0.33290  1.0000
  I   I341      1.0  0.11294  0.34814  0.70098  1.0000
  I   I342      1.0  0.10189  0.20947  0.81730  1.0000
  I   I343      1.0  0.89350  0.81480  0.92237  1.0000
  I   I344      1.0  0.88693  0.95635  0.49527  1.0000
  I   I345      1.0  0.83697  0.99015  0.08549  1.0000
  I   I346      1.0  0.98031  0.96685  0.20849  1.0000
  I   I347      1.0  0.20063  0.83993  0.17009  1.0000
  I   I348      1.0  0.05805  0.82467  0.69419  1.0000
  I   I349      1.0  0.36818  0.13604  0.11452  1.0000
  I   I350      1.0  0.28143  0.21480  0.50989  1.0000
  I   I351      1.0  0.34915  0.05475  0.65515  1.0000
  I   I352      1.0  0.36564  0.39998  0.45255  1.0000
  I   I353      1.0  0.27603  0.58574  0.95126  1.0000
  I   I354      1.0  0.22790  0.61235  0.41759  1.0000
  I   I355      1.0  0.32142  0.76347  0.28767  1.0000
  I   I356      1.0  0.67942  0.61726  0.62155  1.0000
  I   I357      1.0  0.37893  0.67751  0.63798  1.0000
  I   I358      1.0  0.43690  0.76715  0.83957  1.0000
  I   I359      1.0  0.65242  0.79798  0.68598  1.0000
  I   I360      1.0  0.57662  0.85539  0.02368  1.0000
  I   I361      1.0  0.51024  0.20174  0.49772  1.0000
  I   I362      1.0  0.40942  0.23656  0.79305  1.0000
  I   I363      1.0  0.31003  0.37141  0.15167  1.0000
  I   I364      1.0  0.40355  0.64287  0.87516  1.0000
  I   I365      1.0  0.41926  0.51983  0.37645  1.0000
  I   I366      1.0  0.64510  0.46336  0.93935  1.0000
  I   I367      1.0  0.90038  0.48822  0.10787  1.0000
  I   I368      1.0  0.91652  0.48704  0.38104  1.0000
  I   I369      1.0  0.89553  0.43783  0.84501  1.0000
  I   I370      1.0  0.72485  0.79912  0.04360  1.0000
  I   I371      1.0  0.68434  0.62943  0.23176  1.0000
  I   I372      1.0  0.81895  0.72939  0.36611  1.0000
  I   I373      1.0  0.61859  0.18008  0.20827  1.0000
  I   I374      1.0  0.85702  0.12274  0.23931  1.0000
  I   I375      1.0  0.72291  0.22434  0.67289  1.0000
  I   I376      1.0  0.93962  0.35085  0.97559  1.0000
  I   I377      1.0  0.85900  0.31790  0.47687  1.0000
  I   I378      1.0  0.08199  0.96708  0.55030  1.0000
  I   I379      1.0  0.04793  0.56687  0.03412  1.0000
  I   I380      1.0  0.02723  0.38131  0.32077  1.0000
  I   I381      1.0  0.01371  0.61385  0.63786  1.0000
  I   I382      1.0  0.60991  0.01548  0.19211  1.0000
  I   I383      1.0  0.63030  0.01314  0.45498  1.0000
  I   I384      1.0  0.56245  0.07729  0.72438  1.0000
