data_image0
_chemical_formula_structural       Ti96I384
_chemical_formula_sum              "Ti96 I384"
_cell_length_a       41.6761
_cell_length_b       41.2606
_cell_length_c       22.3722
_cell_angle_alpha    88.7757
_cell_angle_beta     88.7757
_cell_angle_gamma    62.1586

_space_group_name_H-M_alt    "P 1"
_space_group_IT_number       1

loop_
  _space_group_symop_operation_xyz
  'x, y, z'

loop_
  _atom_site_type_symbol
  _atom_site_label
  _atom_site_symmetry_multiplicity
  _atom_site_fract_x
  _atom_site_fract_y
  _atom_site_fract_z
  _atom_site_occupancy
  Ti  Ti1       1.0  0.18826  0.10316  0.06298  1.0000
  Ti  Ti2       1.0  0.14598  0.13223  0.42328  1.0000
  Ti  Ti3       1.0  0.16093  0.11481  0.74501  1.0000
  Ti  Ti4       1.0  0.23535  0.27981  0.14577  1.0000
  Ti  Ti5       1.0  0.25268  0.28603  0.48240  1.0000
  Ti  Ti6       1.0  0.22911  0.30523  0.81402  1.0000
  Ti  Ti7       1.0  0.09336  0.64696  0.38282  1.0000
  Ti  Ti8       1.0  0.08721  0.65678  0.70055  1.0000
  Ti  Ti9       1.0  0.08816  0.66362  0.04164  1.0000
  Ti  Ti10      1.0  0.18293  0.85084  0.23497  1.0000
  Ti  Ti11      1.0  0.15971  0.90708  0.61062  1.0000
  Ti  Ti12      1.0  0.15716  0.87402  0.90253  1.0000
  Ti  Ti13      1.0  0.44434  0.05415  0.29452  1.0000
  Ti  Ti14      1.0  0.46161  0.05351  0.63055  1.0000
  Ti  Ti15      1.0  0.45372  0.05744  0.95981  1.0000
  Ti  Ti16      1.0  0.36502  0.42331  0.40244  1.0000
  Ti  Ti17      1.0  0.34359  0.44565  0.73365  1.0000
  Ti  Ti18      1.0  0.34000  0.44960  0.05599  1.0000
  Ti  Ti19      1.0  0.43150  0.60031  0.51192  1.0000
  Ti  Ti20      1.0  0.39284  0.63660  0.84150  1.0000
  Ti  Ti21      1.0  0.41909  0.59579  0.15817  1.0000
  Ti  Ti22      1.0  0.43756  0.86441  0.04678  1.0000
  Ti  Ti23      1.0  0.38446  0.84453  0.37122  1.0000
  Ti  Ti24      1.0  0.46065  0.83632  0.70162  1.0000
  Ti  Ti25      1.0  0.60708  0.15447  0.31440  1.0000
  Ti  Ti26      1.0  0.59850  0.15174  0.67548  1.0000
  Ti  Ti27      1.0  0.57933  0.17049  0.99686  1.0000
  Ti  Ti28      1.0  0.64993  0.36753  0.19024  1.0000
  Ti  Ti29      1.0  0.65826  0.37852  0.52071  1.0000
  Ti  Ti30      1.0  0.66655  0.35975  0.85455  1.0000
  Ti  Ti31      1.0  0.68337  0.58018  0.02992  1.0000
  Ti  Ti32      1.0  0.69040  0.55166  0.36046  1.0000
  Ti  Ti33      1.0  0.67881  0.54860  0.69351  1.0000
  Ti  Ti34      1.0  0.68509  0.81314  0.34628  1.0000
  Ti  Ti35      1.0  0.66818  0.81324  0.68509  1.0000
  Ti  Ti36      1.0  0.68251  0.80890  0.02551  1.0000
  Ti  Ti37      1.0  0.86711  0.06281  0.27775  1.0000
  Ti  Ti38      1.0  0.87315  0.07222  0.61097  1.0000
  Ti  Ti39      1.0  0.88110  0.05957  0.94157  1.0000
  Ti  Ti40      1.0  0.89773  0.29301  0.08257  1.0000
  Ti  Ti41      1.0  0.91355  0.30223  0.40354  1.0000
  Ti  Ti42      1.0  0.90611  0.30315  0.74655  1.0000
  Ti  Ti43      1.0  0.93639  0.53120  0.31986  1.0000
  Ti  Ti44      1.0  0.92160  0.53599  0.65878  1.0000
  Ti  Ti45      1.0  0.93662  0.52285  0.99475  1.0000
  Ti  Ti46      1.0  0.82625  0.88575  0.30121  1.0000
  Ti  Ti47      1.0  0.84506  0.89948  0.63124  1.0000
  Ti  Ti48      1.0  0.83892  0.89750  0.98192  1.0000
  Ti  Ti49      1.0  0.10642  0.15896  0.93056  1.0000
  Ti  Ti50      1.0  0.07860  0.17028  0.27550  1.0000
  Ti  Ti51      1.0  0.08459  0.17260  0.59723  1.0000
  Ti  Ti52      1.0  0.17013  0.31365  0.97980  1.0000
  Ti  Ti53      1.0  0.17626  0.30978  0.31891  1.0000
  Ti  Ti54      1.0  0.17467  0.32058  0.62284  1.0000
  Ti  Ti55      1.0  0.03073  0.70958  0.21269  1.0000
  Ti  Ti56      1.0  0.02987  0.70433  0.53774  1.0000
  Ti  Ti57      1.0  0.02727  0.73463  0.87326  1.0000
  Ti  Ti58      1.0  0.10758  0.89966  0.08108  1.0000
  Ti  Ti59      1.0  0.11791  0.92551  0.40955  1.0000
  Ti  Ti60      1.0  0.08924  0.93201  0.75475  1.0000
  Ti  Ti61      1.0  0.39229  0.09416  0.13451  1.0000
  Ti  Ti62      1.0  0.38522  0.08657  0.47243  1.0000
  Ti  Ti63      1.0  0.38575  0.09940  0.79525  1.0000
  Ti  Ti64      1.0  0.28745  0.46718  0.23475  1.0000
  Ti  Ti65      1.0  0.28891  0.45748  0.56258  1.0000
  Ti  Ti66      1.0  0.26385  0.48392  0.89842  1.0000
  Ti  Ti67      1.0  0.37244  0.65619  0.33941  1.0000
  Ti  Ti68      1.0  0.31730  0.69331  0.69855  1.0000
  Ti  Ti69      1.0  0.33447  0.67183  0.01966  1.0000
  Ti  Ti70      1.0  0.42961  0.88513  0.87918  1.0000
  Ti  Ti71      1.0  0.30249  0.94635  0.28437  1.0000
  Ti  Ti72      1.0  0.36908  0.89315  0.55621  1.0000
  Ti  Ti73      1.0  0.52493  0.20400  0.16966  1.0000
  Ti  Ti74      1.0  0.55849  0.19600  0.49260  1.0000
  Ti  Ti75      1.0  0.53857  0.22998  0.81859  1.0000
  Ti  Ti76      1.0  0.59210  0.39586  0.01283  1.0000
  Ti  Ti77      1.0  0.58225  0.42787  0.37103  1.0000
  Ti  Ti78      1.0  0.59504  0.40332  0.69365  1.0000
  Ti  Ti79      1.0  0.62536  0.62683  0.85283  1.0000
  Ti  Ti80      1.0  0.64240  0.63723  0.19727  1.0000
  Ti  Ti81      1.0  0.63093  0.59928  0.51997  1.0000
  Ti  Ti82      1.0  0.61127  0.87408  0.18496  1.0000
  Ti  Ti83      1.0  0.62318  0.86493  0.51156  1.0000
  Ti  Ti84      1.0  0.63076  0.86856  0.84568  1.0000
  Ti  Ti85      1.0  0.83010  0.12249  0.10135  1.0000
  Ti  Ti86      1.0  0.81628  0.13282  0.44685  1.0000
  Ti  Ti87      1.0  0.84335  0.14359  0.77632  1.0000
  Ti  Ti88      1.0  0.85361  0.35966  0.92601  1.0000
  Ti  Ti89      1.0  0.84749  0.35635  0.25937  1.0000
  Ti  Ti90      1.0  0.85459  0.37319  0.58030  1.0000
  Ti  Ti91      1.0  0.91806  0.58487  0.14695  1.0000
  Ti  Ti92      1.0  0.91141  0.59195  0.48314  1.0000
  Ti  Ti93      1.0  0.92238  0.59468  0.83959  1.0000
  Ti  Ti94      1.0  0.76959  0.95053  0.14032  1.0000
  Ti  Ti95      1.0  0.76871  0.93972  0.47410  1.0000
  Ti  Ti96      1.0  0.77747  0.94878  0.79608  1.0000
  I   I1        1.0  0.09393  0.14410  0.17148  1.0000
  I   I2        1.0  0.09012  0.12316  0.50401  1.0000
  I   I3        1.0  0.09181  0.12697  0.82786  1.0000
  I   I4        1.0  0.19378  0.25990  0.22914  1.0000
  I   I5        1.0  0.19218  0.27449  0.52653  1.0000
  I   I6        1.0  0.18282  0.27875  0.87249  1.0000
  I   I7        1.0  0.02462  0.66439  0.44376  1.0000
  I   I8        1.0  0.02233  0.70188  0.76501  1.0000
  I   I9        1.0  0.02607  0.67760  0.10910  1.0000
  I   I10       1.0  0.13071  0.86265  0.34447  1.0000
  I   I11       1.0  0.08716  0.90615  0.63858  1.0000
  I   I12       1.0  0.09888  0.86878  0.96347  1.0000
  I   I13       1.0  0.37867  0.05872  0.34754  1.0000
  I   I14       1.0  0.39886  0.05668  0.69068  1.0000
  I   I15       1.0  0.39474  0.05564  0.02184  1.0000
  I   I16       1.0  0.31701  0.40731  0.46629  1.0000
  I   I17       1.0  0.28406  0.44326  0.79439  1.0000
  I   I18       1.0  0.29925  0.41894  0.14115  1.0000
  I   I19       1.0  0.30444  0.67102  0.59994  1.0000
  I   I20       1.0  0.32383  0.64922  0.91598  1.0000
  I   I21       1.0  0.35630  0.62023  0.24943  1.0000
  I   I22       1.0  0.23460  0.96416  0.26463  1.0000
  I   I23       1.0  0.33263  0.88527  0.46796  1.0000
  I   I24       1.0  0.40789  0.85393  0.78580  1.0000
  I   I25       1.0  0.54647  0.16146  0.39693  1.0000
  I   I26       1.0  0.52422  0.20303  0.72098  1.0000
  I   I27       1.0  0.50539  0.19277  0.05987  1.0000
  I   I28       1.0  0.57564  0.39992  0.26543  1.0000
  I   I29       1.0  0.59729  0.37080  0.58945  1.0000
  I   I30       1.0  0.59429  0.36205  0.91052  1.0000
  I   I31       1.0  0.61273  0.61652  0.08715  1.0000
  I   I32       1.0  0.61908  0.57401  0.40605  1.0000
  I   I33       1.0  0.60388  0.59625  0.76892  1.0000
  I   I34       1.0  0.61411  0.82896  0.41592  1.0000
  I   I35       1.0  0.60385  0.86910  0.73937  1.0000
  I   I36       1.0  0.60810  0.83112  0.09449  1.0000
  I   I37       1.0  0.79823  0.11900  0.34029  1.0000
  I   I38       1.0  0.80917  0.12147  0.69006  1.0000
  I   I39       1.0  0.80381  0.10303  0.00773  1.0000
  I   I40       1.0  0.82604  0.32725  0.16866  1.0000
  I   I41       1.0  0.84020  0.34282  0.48075  1.0000
  I   I42       1.0  0.83781  0.33968  0.80703  1.0000
  I   I43       1.0  0.87313  0.59912  0.38723  1.0000
  I   I44       1.0  0.87292  0.59634  0.72256  1.0000
  I   I45       1.0  0.88376  0.59259  0.04129  1.0000
  I   I46       1.0  0.76001  0.89899  0.37241  1.0000
  I   I47       1.0  0.78112  0.90226  0.70110  1.0000
  I   I48       1.0  0.76532  0.92328  0.02244  1.0000
  I   I49       1.0  0.14981  0.17281  0.00667  1.0000
  I   I50       1.0  0.08642  0.19848  0.39031  1.0000
  I   I51       1.0  0.10912  0.18818  0.70356  1.0000
  I   I52       1.0  0.16703  0.34296  0.08712  1.0000
  I   I53       1.0  0.18512  0.34416  0.41316  1.0000
  I   I54       1.0  0.17465  0.35516  0.73625  1.0000
  I   I55       1.0  0.05107  0.72291  0.31926  1.0000
  I   I56       1.0  0.06304  0.72352  0.62985  1.0000
  I   I57       1.0  0.05103  0.73636  0.99132  1.0000
  I   I58       1.0  0.13592  0.92048  0.17153  1.0000
  I   I59       1.0  0.11603  0.96241  0.52344  1.0000
  I   I60       1.0  0.09242  0.94986  0.86020  1.0000
  I   I61       1.0  0.39941  0.12572  0.23903  1.0000
  I   I62       1.0  0.40527  0.11639  0.56643  1.0000
  I   I63       1.0  0.40527  0.12765  0.88591  1.0000
  I   I64       1.0  0.31063  0.49564  0.32623  1.0000
  I   I65       1.0  0.29265  0.50043  0.65742  1.0000
  I   I66       1.0  0.26311  0.51465  0.00461  1.0000
  I   I67       1.0  0.39026  0.67041  0.45840  1.0000
  I   I68       1.0  0.35139  0.70960  0.78978  1.0000
  I   I69       1.0  0.38121  0.66885  0.11139  1.0000
  I   I70       1.0  0.46677  0.89623  0.96492  1.0000
  I   I71       1.0  0.37676  0.90901  0.30758  1.0000
  I   I72       1.0  0.41441  0.90305  0.64181  1.0000
  I   I73       1.0  0.54985  0.22209  0.28033  1.0000
  I   I74       1.0  0.58222  0.21338  0.58820  1.0000
  I   I75       1.0  0.56361  0.24015  0.92795  1.0000
  I   I76       1.0  0.60620  0.42671  0.11393  1.0000
  I   I77       1.0  0.60352  0.44969  0.46997  1.0000
  I   I78       1.0  0.62702  0.42576  0.78935  1.0000
  I   I79       1.0  0.64934  0.64459  0.95251  1.0000
  I   I80       1.0  0.67665  0.63708  0.29885  1.0000
  I   I81       1.0  0.65629  0.61412  0.62094  1.0000
  I   I82       1.0  0.65057  0.88666  0.27477  1.0000
  I   I83       1.0  0.66260  0.87664  0.60184  1.0000
  I   I84       1.0  0.66470  0.87332  0.95731  1.0000
  I   I85       1.0  0.87928  0.11770  0.20005  1.0000
  I   I86       1.0  0.85037  0.14649  0.54121  1.0000
  I   I87       1.0  0.87520  0.13214  0.89825  1.0000
  I   I88       1.0  0.86950  0.36840  0.03878  1.0000
  I   I89       1.0  0.88803  0.37106  0.34580  1.0000
  I   I90       1.0  0.88730  0.37691  0.69188  1.0000
  I   I91       1.0  0.95429  0.58148  0.27037  1.0000
  I   I92       1.0  0.94410  0.58586  0.59795  1.0000
  I   I93       1.0  0.97670  0.56560  0.91989  1.0000
  I   I94       1.0  0.78993  0.97055  0.24260  1.0000
  I   I95       1.0  0.79549  0.96288  0.57178  1.0000
  I   I96       1.0  0.80626  0.96219  0.89721  1.0000
  I   I97       1.0  0.17336  0.14271  0.84942  1.0000
  I   I98       1.0  0.20993  0.13313  0.14219  1.0000
  I   I99       1.0  0.14567  0.16952  0.52570  1.0000
  I   I100      1.0  0.22676  0.33570  0.93050  1.0000
  I   I101      1.0  0.22881  0.32078  0.25156  1.0000
  I   I102      1.0  0.24041  0.33254  0.58966  1.0000
  I   I103      1.0  0.10717  0.67564  0.15266  1.0000
  I   I104      1.0  0.10015  0.68486  0.46571  1.0000
  I   I105      1.0  0.09932  0.69225  0.82500  1.0000
  I   I106      1.0  0.17508  0.88519  0.01803  1.0000
  I   I107      1.0  0.19145  0.89093  0.32452  1.0000
  I   I108      1.0  0.14938  0.94296  0.71150  1.0000
  I   I109      1.0  0.45648  0.08733  0.07214  1.0000
  I   I110      1.0  0.43957  0.08951  0.41297  1.0000
  I   I111      1.0  0.46804  0.08759  0.72298  1.0000
  I   I112      1.0  0.33758  0.48253  0.16211  1.0000
  I   I113      1.0  0.35446  0.46766  0.50591  1.0000
  I   I114      1.0  0.32864  0.48466  0.84224  1.0000
  I   I115      1.0  0.44127  0.61479  0.26636  1.0000
  I   I116      1.0  0.41823  0.63976  0.61402  1.0000
  I   I117      1.0  0.41576  0.64733  0.95359  1.0000
  I   I118      1.0  0.48699  0.86533  0.79164  1.0000
  I   I119      1.0  0.42507  0.91203  0.12986  1.0000
  I   I120      1.0  0.42255  0.86386  0.45587  1.0000
  I   I121      1.0  0.58350  0.20752  0.08922  1.0000
  I   I122      1.0  0.62142  0.18879  0.42645  1.0000
  I   I123      1.0  0.61329  0.18568  0.76211  1.0000
  I   I124      1.0  0.66746  0.38157  0.96216  1.0000
  I   I125      1.0  0.64951  0.41723  0.27901  1.0000
  I   I126      1.0  0.65829  0.40367  0.62979  1.0000
  I   I127      1.0  0.69445  0.59176  0.78066  1.0000
  I   I128      1.0  0.70883  0.59362  0.13245  1.0000
  I   I129      1.0  0.70701  0.56262  0.46852  1.0000
  I   I130      1.0  0.67665  0.85492  0.11587  1.0000
  I   I131      1.0  0.69181  0.84463  0.44999  1.0000
  I   I132      1.0  0.69846  0.84452  0.77374  1.0000
  I   I133      1.0  0.89919  0.07700  0.04181  1.0000
  I   I134      1.0  0.88920  0.07375  0.37963  1.0000
  I   I135      1.0  0.90674  0.09629  0.69455  1.0000
  I   I136      1.0  0.92145  0.33531  0.86745  1.0000
  I   I137      1.0  0.91158  0.32908  0.16996  1.0000
  I   I138      1.0  0.92177  0.34097  0.51158  1.0000
  I   I139      1.0  0.97475  0.51683  0.09075  1.0000
  I   I140      1.0  0.96551  0.53221  0.43123  1.0000
  I   I141      1.0  0.96442  0.54245  0.76035  1.0000
  I   I142      1.0  0.83829  0.92535  0.08643  1.0000
  I   I143      1.0  0.83347  0.92450  0.39798  1.0000
  I   I144      1.0  0.84733  0.92358  0.75113  1.0000
  I   I145      1.0  0.15599  0.08126  0.96184  1.0000
  I   I146      1.0  0.11163  0.10961  0.34497  1.0000
  I   I147      1.0  0.12949  0.09953  0.64861  1.0000
  I   I148      1.0  0.24197  0.24203  0.04914  1.0000
  I   I149      1.0  0.24850  0.24654  0.39198  1.0000
  I   I150      1.0  0.23018  0.26520  0.69143  1.0000
  I   I151      1.0  0.05059  0.64165  0.28714  1.0000
  I   I152      1.0  0.05389  0.63902  0.61464  1.0000
  I   I153      1.0  0.04748  0.66379  0.93944  1.0000
  I   I154      1.0  0.14422  0.83118  0.14887  1.0000
  I   I155      1.0  0.17544  0.87105  0.48860  1.0000
  I   I156      1.0  0.13777  0.85933  0.79292  1.0000
  I   I157      1.0  0.43663  0.02486  0.19456  1.0000
  I   I158      1.0  0.44173  0.01945  0.53580  1.0000
  I   I159      1.0  0.44316  0.03173  0.85737  1.0000
  I   I160      1.0  0.34186  0.40305  0.29424  1.0000
  I   I161      1.0  0.36215  0.40002  0.63383  1.0000
  I   I162      1.0  0.31980  0.42134  0.96311  1.0000
  I   I163      1.0  0.40707  0.58371  0.39826  1.0000
  I   I164      1.0  0.35428  0.61930  0.75028  1.0000
  I   I165      1.0  0.36965  0.59792  0.06279  1.0000
  I   I166      1.0  0.46368  0.81369  0.94155  1.0000
  I   I167      1.0  0.32548  0.86078  0.28969  1.0000
  I   I168      1.0  0.41707  0.82057  0.61489  1.0000
  I   I169      1.0  0.58004  0.13791  0.22214  1.0000
  I   I170      1.0  0.58480  0.12777  0.56678  1.0000
  I   I171      1.0  0.54997  0.16327  0.89254  1.0000
  I   I172      1.0  0.63564  0.33750  0.09910  1.0000
  I   I173      1.0  0.63356  0.36023  0.41851  1.0000
  I   I174      1.0  0.64612  0.33655  0.74331  1.0000
  I   I175      1.0  0.64766  0.56374  0.94457  1.0000
  I   I176      1.0  0.64781  0.56978  0.25056  1.0000
  I   I177      1.0  0.65562  0.52696  0.60074  1.0000
  I   I178      1.0  0.65535  0.79636  0.24868  1.0000
  I   I179      1.0  0.64024  0.78979  0.59840  1.0000
  I   I180      1.0  0.66346  0.79215  0.92059  1.0000
  I   I181      1.0  0.85013  0.05385  0.15724  1.0000
  I   I182      1.0  0.82897  0.07057  0.52598  1.0000
  I   I183      1.0  0.84489  0.07841  0.83053  1.0000
  I   I184      1.0  0.86751  0.28546  0.98044  1.0000
  I   I185      1.0  0.87614  0.28584  0.31885  1.0000
  I   I186      1.0  0.87814  0.29454  0.64003  1.0000
  I   I187      1.0  0.89263  0.55050  0.21690  1.0000
  I   I188      1.0  0.89287  0.54026  0.54597  1.0000
  I   I189      1.0  0.90113  0.54038  0.88653  1.0000
  I   I190      1.0  0.79730  0.87602  0.20341  1.0000
  I   I191      1.0  0.81941  0.87535  0.54172  1.0000
  I   I192      1.0  0.81273  0.87773  0.87867  1.0000
  I   I193      1.0  0.24634  0.08920  0.99622  1.0000
  I   I194      1.0  0.19283  0.14179  0.36598  1.0000
  I   I195      1.0  0.21243  0.12438  0.69851  1.0000
  I   I196      1.0  0.28025  0.30065  0.10459  1.0000
  I   I197      1.0  0.27784  0.32830  0.42812  1.0000
  I   I198      1.0  0.27292  0.32781  0.77752  1.0000
  I   I199      1.0  0.15072  0.63855  0.32356  1.0000
  I   I200      1.0  0.15025  0.63788  0.66128  1.0000
  I   I201      1.0  0.14837  0.66688  0.99999  1.0000
  I   I202      1.0  0.23898  0.85270  0.17955  1.0000
  I   I203      1.0  0.20969  0.92560  0.58137  1.0000
  I   I204      1.0  0.19826  0.90615  0.86978  1.0000
  I   I205      1.0  0.49268  0.07389  0.26559  1.0000
  I   I206      1.0  0.50887  0.06459  0.56552  1.0000
  I   I207      1.0  0.50408  0.07082  0.91731  1.0000
  I   I208      1.0  0.41652  0.43507  0.34636  1.0000
  I   I209      1.0  0.38263  0.47956  0.69426  1.0000
  I   I210      1.0  0.37698  0.47923  0.01568  1.0000
  I   I211      1.0  0.50011  0.57665  0.50022  1.0000
  I   I212      1.0  0.45343  0.62986  0.79848  1.0000
  I   I213      1.0  0.48404  0.59473  0.12653  1.0000
  I   I214      1.0  0.49475  0.81861  0.09465  1.0000
  I   I215      1.0  0.42897  0.81039  0.28334  1.0000
  I   I216      1.0  0.50381  0.83085  0.61166  1.0000
  I   I217      1.0  0.65819  0.15343  0.23691  1.0000
  I   I218      1.0  0.66866  0.10641  0.64716  1.0000
  I   I219      1.0  0.64509  0.15395  0.94002  1.0000
  I   I220      1.0  0.70889  0.36876  0.16139  1.0000
  I   I221      1.0  0.71271  0.37512  0.45476  1.0000
  I   I222      1.0  0.72495  0.35511  0.81428  1.0000
  I   I223      1.0  0.74517  0.56045  0.97099  1.0000
  I   I224      1.0  0.75100  0.53924  0.31384  1.0000
  I   I225      1.0  0.74660  0.51745  0.65456  1.0000
  I   I226      1.0  0.74500  0.79552  0.28958  1.0000
  I   I227      1.0  0.73627  0.78647  0.65019  1.0000
  I   I228      1.0  0.75029  0.79476  0.99322  1.0000
  I   I229      1.0  0.93142  0.00887  0.24853  1.0000
  I   I230      1.0  0.93065  0.03736  0.55281  1.0000
  I   I231      1.0  0.94810  0.00833  0.91037  1.0000
  I   I232      1.0  0.96221  0.27826  0.03979  1.0000
  I   I233      1.0  0.97246  0.28902  0.34139  1.0000
  I   I234      1.0  0.97314  0.28194  0.70847  1.0000
  I   I235      1.0  0.00013  0.47972  0.28509  1.0000
  I   I236      1.0  0.98151  0.48627  0.59890  1.0000
  I   I237      1.0  0.99158  0.46353  0.95370  1.0000
  I   I238      1.0  0.88435  0.87926  0.25511  1.0000
  I   I239      1.0  0.90327  0.90790  0.60970  1.0000
  I   I240      1.0  0.89908  0.89504  0.94856  1.0000
  I   I241      1.0  0.20859  0.04466  0.12608  1.0000
  I   I242      1.0  0.18649  0.06932  0.47271  1.0000
  I   I243      1.0  0.18944  0.04277  0.76809  1.0000
  I   I244      1.0  0.28815  0.22169  0.20255  1.0000
  I   I245      1.0  0.31059  0.23967  0.53570  1.0000
  I   I246      1.0  0.28838  0.24116  0.83868  1.0000
  I   I247      1.0  0.12326  0.58505  0.44356  1.0000
  I   I248      1.0  0.09440  0.60241  0.77194  1.0000
  I   I249      1.0  0.12492  0.59373  0.02838  1.0000
  I   I250      1.0  0.21992  0.78498  0.27706  1.0000
  I   I251      1.0  0.19703  0.83935  0.64502  1.0000
  I   I252      1.0  0.20006  0.80337  0.90293  1.0000
  I   I253      1.0  0.47519  0.98970  0.34755  1.0000
  I   I254      1.0  0.50577  0.98609  0.66991  1.0000
  I   I255      1.0  0.49097  0.99300  0.00691  1.0000
  I   I256      1.0  0.41461  0.35650  0.41505  1.0000
  I   I257      1.0  0.39555  0.38137  0.78631  1.0000
  I   I258      1.0  0.39517  0.38608  0.08077  1.0000
  I   I259      1.0  0.44231  0.53484  0.54450  1.0000
  I   I260      1.0  0.42381  0.56236  0.85106  1.0000
  I   I261      1.0  0.43608  0.53158  0.19170  1.0000
  I   I262      1.0  0.40541  0.82087  0.07675  1.0000
  I   I263      1.0  0.38520  0.78829  0.42415  1.0000
  I   I264      1.0  0.49814  0.76952  0.74082  1.0000
  I   I265      1.0  0.64466  0.08974  0.36272  1.0000
  I   I266      1.0  0.58364  0.10616  0.74131  1.0000
  I   I267      1.0  0.60589  0.10414  0.04323  1.0000
  I   I268      1.0  0.67855  0.30508  0.24641  1.0000
  I   I269      1.0  0.69564  0.30843  0.55576  1.0000
  I   I270      1.0  0.69759  0.28724  0.87899  1.0000
  I   I271      1.0  0.70924  0.51200  0.07169  1.0000
  I   I272      1.0  0.70376  0.48529  0.38069  1.0000
  I   I273      1.0  0.68366  0.50801  0.78567  1.0000
  I   I274      1.0  0.70692  0.74491  0.39838  1.0000
  I   I275      1.0  0.66746  0.76626  0.76409  1.0000
  I   I276      1.0  0.70665  0.74646  0.08319  1.0000
  I   I277      1.0  0.83611  0.02467  0.31888  1.0000
  I   I278      1.0  0.86730  0.01838  0.66660  1.0000
  I   I279      1.0  0.86652  0.00710  0.98664  1.0000
  I   I280      1.0  0.91813  0.22845  0.12747  1.0000
  I   I281      1.0  0.92597  0.24304  0.46433  1.0000
  I   I282      1.0  0.92132  0.23951  0.78994  1.0000
  I   I283      1.0  0.90260  0.49090  0.35186  1.0000
  I   I284      1.0  0.90055  0.48421  0.69335  1.0000
  I   I285      1.0  0.89848  0.49455  0.04540  1.0000
  I   I286      1.0  0.85863  0.81722  0.34390  1.0000
  I   I287      1.0  0.88294  0.83087  0.66765  1.0000
  I   I288      1.0  0.86706  0.82445  0.00812  1.0000
  I   I289      1.0  0.05034  0.16760  0.99358  1.0000
  I   I290      1.0  0.01613  0.17218  0.29213  1.0000
  I   I291      1.0  0.03041  0.16100  0.63874  1.0000
  I   I292      1.0  0.11484  0.30100  0.00939  1.0000
  I   I293      1.0  0.13864  0.28507  0.38383  1.0000
  I   I294      1.0  0.12920  0.29759  0.65070  1.0000
  I   I295      1.0  0.96509  0.72211  0.24156  1.0000
  I   I296      1.0  0.96273  0.73085  0.57644  1.0000
  I   I297      1.0  0.95633  0.76997  0.89344  1.0000
  I   I298      1.0  0.04939  0.89739  0.12240  1.0000
  I   I299      1.0  0.05656  0.93085  0.44517  1.0000
  I   I300      1.0  0.03227  0.91919  0.76472  1.0000
  I   I301      1.0  0.33066  0.09375  0.15637  1.0000
  I   I302      1.0  0.33763  0.07222  0.53620  1.0000
  I   I303      1.0  0.33053  0.09526  0.83641  1.0000
  I   I304      1.0  0.23433  0.45928  0.27898  1.0000
  I   I305      1.0  0.23882  0.44333  0.60495  1.0000
  I   I306      1.0  0.22012  0.45365  0.92381  1.0000
  I   I307      1.0  0.30547  0.68837  0.37502  1.0000
  I   I308      1.0  0.25285  0.71437  0.73912  1.0000
  I   I309      1.0  0.26793  0.69441  0.05025  1.0000
  I   I310      1.0  0.37722  0.89592  0.95721  1.0000
  I   I311      1.0  0.29723  0.00030  0.34761  1.0000
  I   I312      1.0  0.31770  0.91507  0.63590  1.0000
  I   I313      1.0  0.47755  0.18834  0.21871  1.0000
  I   I314      1.0  0.49615  0.20822  0.54340  1.0000
  I   I315      1.0  0.46880  0.26080  0.85115  1.0000
  I   I316      1.0  0.53010  0.39719  0.04189  1.0000
  I   I317      1.0  0.51620  0.43896  0.41024  1.0000
  I   I318      1.0  0.54408  0.39897  0.75755  1.0000
  I   I319      1.0  0.55754  0.65386  0.89265  1.0000
  I   I320      1.0  0.57939  0.67199  0.24193  1.0000
  I   I321      1.0  0.57322  0.61013  0.58387  1.0000
  I   I322      1.0  0.55189  0.87644  0.23377  1.0000
  I   I323      1.0  0.55834  0.88684  0.56086  1.0000
  I   I324      1.0  0.56702  0.88478  0.89328  1.0000
  I   I325      1.0  0.77108  0.15626  0.16555  1.0000
  I   I326      1.0  0.74618  0.16489  0.47866  1.0000
  I   I327      1.0  0.77450  0.18140  0.80724  1.0000
  I   I328      1.0  0.78675  0.36674  0.94214  1.0000
  I   I329      1.0  0.77971  0.38293  0.29378  1.0000
  I   I330      1.0  0.78901  0.39747  0.62482  1.0000
  I   I331      1.0  0.86260  0.65075  0.17227  1.0000
  I   I332      1.0  0.85051  0.64975  0.54671  1.0000
  I   I333      1.0  0.86511  0.64658  0.89191  1.0000
  I   I334      1.0  0.70578  0.95625  0.17349  1.0000
  I   I335      1.0  0.70441  0.95128  0.51184  1.0000
  I   I336      1.0  0.71850  0.94620  0.83807  1.0000
  I   I337      1.0  0.08269  0.21953  0.87097  1.0000
  I   I338      1.0  0.05780  0.23837  0.23177  1.0000
  I   I339      1.0  0.05015  0.24031  0.57025  1.0000
  I   I340      1.0  0.12876  0.38237  0.94547  1.0000
  I   I341      1.0  0.11989  0.36520  0.28341  1.0000
  I   I342      1.0  0.12931  0.38309  0.58155  1.0000
  I   I343      1.0  0.01377  0.77577  0.18398  1.0000
  I   I344      1.0  0.01193  0.77012  0.49800  1.0000
  I   I345      1.0  0.02638  0.79555  0.83598  1.0000
  I   I346      1.0  0.07731  0.96647  0.03402  1.0000
  I   I347      1.0  0.09645  0.98690  0.35435  1.0000
  I   I348      1.0  0.04565  0.99934  0.70978  1.0000
  I   I349      1.0  0.35925  0.15960  0.08806  1.0000
  I   I350      1.0  0.32859  0.14556  0.43507  1.0000
  I   I351      1.0  0.34815  0.16162  0.73575  1.0000
  I   I352      1.0  0.24163  0.52962  0.19340  1.0000
  I   I353      1.0  0.24348  0.52283  0.51912  1.0000
  I   I354      1.0  0.21374  0.54176  0.84756  1.0000
  I   I355      1.0  0.36359  0.71787  0.28455  1.0000
  I   I356      1.0  0.31072  0.75383  0.65581  1.0000
  I   I357      1.0  0.33050  0.73395  0.97750  1.0000
  I   I358      1.0  0.39938  0.95293  0.82297  1.0000
  I   I359      1.0  0.31822  0.96383  0.18056  1.0000
  I   I360      1.0  0.34596  0.96308  0.52561  1.0000
  I   I361      1.0  0.48302  0.27545  0.16322  1.0000
  I   I362      1.0  0.52139  0.26393  0.45699  1.0000
  I   I363      1.0  0.54280  0.28981  0.78166  1.0000
  I   I364      1.0  0.57063  0.45761  0.95238  1.0000
  I   I365      1.0  0.56073  0.49550  0.33743  1.0000
  I   I366      1.0  0.54740  0.47042  0.65697  1.0000
  I   I367      1.0  0.61212  0.68827  0.79792  1.0000
  I   I368      1.0  0.64334  0.69485  0.15390  1.0000
  I   I369      1.0  0.60262  0.66498  0.48388  1.0000
  I   I370      1.0  0.57719  0.93821  0.13739  1.0000
  I   I371      1.0  0.60695  0.92851  0.46050  1.0000
  I   I372      1.0  0.62033  0.93530  0.82204  1.0000
  I   I373      1.0  0.83408  0.17959  0.06926  1.0000
  I   I374      1.0  0.81794  0.19358  0.39459  1.0000
  I   I375      1.0  0.85388  0.20039  0.74115  1.0000
  I   I376      1.0  0.84596  0.42617  0.90419  1.0000
  I   I377      1.0  0.83328  0.42148  0.20551  1.0000
  I   I378      1.0  0.84325  0.43744  0.53248  1.0000
  I   I379      1.0  0.95414  0.62014  0.10888  1.0000
  I   I380      1.0  0.92968  0.64574  0.45348  1.0000
  I   I381      1.0  0.94014  0.64009  0.77758  1.0000
  I   I382      1.0  0.74516  0.01573  0.09960  1.0000
  I   I383      1.0  0.74858  0.00828  0.43869  1.0000
  I   I384      1.0  0.74166  0.01371  0.74882  1.0000
