data_image0
_chemical_formula_structural       Ti96I384
_chemical_formula_sum              "Ti96 I384"
_cell_length_a       60.0413
_cell_length_b       60.2745
_cell_length_c       29.2269
_cell_angle_alpha    88.7757
_cell_angle_beta     88.7757
_cell_angle_gamma    62.1586

_space_group_name_H-M_alt    "P 1"
_space_group_IT_number       1

loop_
  _space_group_symop_operation_xyz
  'x, y, z'

loop_
  _atom_site_type_symbol
  _atom_site_label
  _atom_site_symmetry_multiplicity
  _atom_site_fract_x
  _atom_site_fract_y
  _atom_site_fract_z
  _atom_site_occupancy
  Ti  Ti1       1.0  0.91274  0.87410  0.63398  1.0000
  Ti  Ti2       1.0  0.71147  0.05707  0.72429  1.0000
  Ti  Ti3       1.0  0.79677  0.83403  0.94665  1.0000
  Ti  Ti4       1.0  0.38954  0.50986  0.39766  1.0000
  Ti  Ti5       1.0  0.03223  0.76873  0.20927  1.0000
  Ti  Ti6       1.0  0.41283  0.00173  0.15248  1.0000
  Ti  Ti7       1.0  0.11146  0.87977  0.02471  1.0000
  Ti  Ti8       1.0  0.22096  0.58188  0.13630  1.0000
  Ti  Ti9       1.0  0.81571  0.17271  0.39753  1.0000
  Ti  Ti10      1.0  0.81163  0.00237  0.33176  1.0000
  Ti  Ti11      1.0  0.09556  0.66945  0.84511  1.0000
  Ti  Ti12      1.0  0.31498  0.69376  0.35714  1.0000
  Ti  Ti13      1.0  0.35633  0.25367  0.53545  1.0000
  Ti  Ti14      1.0  0.19500  0.17645  0.07220  1.0000
  Ti  Ti15      1.0  0.35585  0.82692  0.03977  1.0000
  Ti  Ti16      1.0  0.89202  0.28904  0.65061  1.0000
  Ti  Ti17      1.0  0.15391  0.43320  0.77174  1.0000
  Ti  Ti18      1.0  0.86276  0.51989  0.43248  1.0000
  Ti  Ti19      1.0  0.66916  0.96803  0.29620  1.0000
  Ti  Ti20      1.0  0.41091  0.11583  0.71622  1.0000
  Ti  Ti21      1.0  0.36777  0.45741  0.92975  1.0000
  Ti  Ti22      1.0  0.54112  0.92516  0.37706  1.0000
  Ti  Ti23      1.0  0.56296  0.80693  0.84344  1.0000
  Ti  Ti24      1.0  0.40308  0.01435  0.44467  1.0000
  Ti  Ti25      1.0  0.22826  0.27545  0.29884  1.0000
  Ti  Ti26      1.0  0.06604  0.42536  0.46162  1.0000
  Ti  Ti27      1.0  0.37774  0.55510  0.73406  1.0000
  Ti  Ti28      1.0  0.68256  0.64991  0.80202  1.0000
  Ti  Ti29      1.0  0.99465  0.23112  0.36317  1.0000
  Ti  Ti30      1.0  0.82819  0.43558  0.03005  1.0000
  Ti  Ti31      1.0  0.74338  0.47350  0.32428  1.0000
  Ti  Ti32      1.0  0.79543  0.96514  0.00658  1.0000
  Ti  Ti33      1.0  0.47637  0.81364  0.46398  1.0000
  Ti  Ti34      1.0  0.82071  0.75678  0.53976  1.0000
  Ti  Ti35      1.0  0.79865  0.24008  0.14451  1.0000
  Ti  Ti36      1.0  0.92169  0.60356  0.84227  1.0000
  Ti  Ti37      1.0  0.15361  0.19741  0.62848  1.0000
  Ti  Ti38      1.0  0.51903  0.27063  0.37028  1.0000
  Ti  Ti39      1.0  0.48630  0.22944  0.11323  1.0000
  Ti  Ti40      1.0  0.02136  0.56459  0.33515  1.0000
  Ti  Ti41      1.0  0.66696  0.62174  0.29127  1.0000
  Ti  Ti42      1.0  0.19473  0.75578  0.67984  1.0000
  Ti  Ti43      1.0  0.17139  0.94848  0.25014  1.0000
  Ti  Ti44      1.0  0.73320  0.74814  0.00941  1.0000
  Ti  Ti45      1.0  0.69904  0.44552  0.73734  1.0000
  Ti  Ti46      1.0  0.98182  0.01661  0.39235  1.0000
  Ti  Ti47      1.0  0.62842  0.20824  0.08588  1.0000
  Ti  Ti48      1.0  0.36538  0.59332  0.09741  1.0000
  Ti  Ti49      1.0  0.86293  0.90965  0.56294  1.0000
  Ti  Ti50      1.0  0.63486  0.08418  0.13395  1.0000
  Ti  Ti51      1.0  0.66016  0.03343  0.81703  1.0000
  Ti  Ti52      1.0  0.45989  0.46801  0.49401  1.0000
  Ti  Ti53      1.0  0.97394  0.79338  0.17321  1.0000
  Ti  Ti54      1.0  0.36966  0.05842  0.16785  1.0000
  Ti  Ti55      1.0  0.03108  0.94443  0.05514  1.0000
  Ti  Ti56      1.0  0.20870  0.64477  0.14559  1.0000
  Ti  Ti57      1.0  0.85248  0.13805  0.28451  1.0000
  Ti  Ti58      1.0  0.20624  0.92862  0.17705  1.0000
  Ti  Ti59      1.0  0.79244  0.01594  0.24004  1.0000
  Ti  Ti60      1.0  0.34588  0.71457  0.29854  1.0000
  Ti  Ti61      1.0  0.31493  0.81810  0.98108  1.0000
  Ti  Ti62      1.0  0.34694  0.23125  0.39902  1.0000
  Ti  Ti63      1.0  0.24223  0.18367  0.96945  1.0000
  Ti  Ti64      1.0  0.81765  0.52553  0.54520  1.0000
  Ti  Ti65      1.0  0.88719  0.22903  0.72487  1.0000
  Ti  Ti66      1.0  0.70454  0.28842  0.87300  1.0000
  Ti  Ti67      1.0  0.65637  0.90556  0.25496  1.0000
  Ti  Ti68      1.0  0.38785  0.17416  0.75440  1.0000
  Ti  Ti69      1.0  0.32303  0.42883  0.85010  1.0000
  Ti  Ti70      1.0  0.46708  0.96617  0.45511  1.0000
  Ti  Ti71      1.0  0.56203  0.78940  0.99750  1.0000
  Ti  Ti72      1.0  0.84608  0.84843  0.38280  1.0000
  Ti  Ti73      1.0  0.38494  0.62168  0.68610  1.0000
  Ti  Ti74      1.0  0.23797  0.27792  0.17551  1.0000
  Ti  Ti75      1.0  0.03699  0.44806  0.57101  1.0000
  Ti  Ti76      1.0  0.83645  0.51031  0.04185  1.0000
  Ti  Ti77      1.0  0.62006  0.65296  0.80871  1.0000
  Ti  Ti78      1.0  0.07189  0.20219  0.29852  1.0000
  Ti  Ti79      1.0  0.50845  0.79607  0.37702  1.0000
  Ti  Ti80      1.0  0.79604  0.45436  0.25597  1.0000
  Ti  Ti81      1.0  0.84395  0.96457  0.91097  1.0000
  Ti  Ti82      1.0  0.82600  0.70452  0.53594  1.0000
  Ti  Ti83      1.0  0.75591  0.30234  0.09747  1.0000
  Ti  Ti84      1.0  0.94388  0.54373  0.83243  1.0000
  Ti  Ti85      1.0  0.22485  0.14558  0.55727  1.0000
  Ti  Ti86      1.0  0.57539  0.21725  0.38179  1.0000
  Ti  Ti87      1.0  0.46254  0.24674  0.01533  1.0000
  Ti  Ti88      1.0  0.03639  0.60287  0.23239  1.0000
  Ti  Ti89      1.0  0.64691  0.61157  0.40590  1.0000
  Ti  Ti90      1.0  0.14152  0.74297  0.62360  1.0000
  Ti  Ti91      1.0  0.66264  0.42383  0.72388  1.0000
  Ti  Ti92      1.0  0.91935  0.08922  0.97056  1.0000
  Ti  Ti93      1.0  0.77428  0.69140  0.96175  1.0000
  Ti  Ti94      1.0  0.38003  0.60559  0.00782  1.0000
  Ti  Ti95      1.0  0.92048  0.01198  0.40484  1.0000
  Ti  Ti96      1.0  0.66975  0.14079  0.11152  1.0000
  I   I1        1.0  0.71507  0.10559  0.13217  1.0000
  I   I2        1.0  0.70981  0.01316  0.72918  1.0000
  I   I3        1.0  0.88646  0.84971  0.62691  1.0000
  I   I4        1.0  0.92958  0.79327  0.20457  1.0000
  I   I5        1.0  0.42427  0.95621  0.16122  1.0000
  I   I6        1.0  0.32616  0.08223  0.12156  1.0000
  I   I7        1.0  0.16687  0.68741  0.14822  1.0000
  I   I8        1.0  0.21951  0.63809  0.06177  1.0000
  I   I9        1.0  0.82522  0.17023  0.48519  1.0000
  I   I10       1.0  0.78579  0.02599  0.40142  1.0000
  I   I11       1.0  0.06537  0.71702  0.83737  1.0000
  I   I12       1.0  0.00012  0.76256  0.27202  1.0000
  I   I13       1.0  0.38422  0.21524  0.46827  1.0000
  I   I14       1.0  0.14559  0.18471  0.08366  1.0000
  I   I15       1.0  0.30646  0.86492  0.01294  1.0000
  I   I16       1.0  0.92675  0.24886  0.70347  1.0000
  I   I17       1.0  0.75484  0.26588  0.87466  1.0000
  I   I18       1.0  0.87700  0.49592  0.51890  1.0000
  I   I19       1.0  0.34173  0.18787  0.78505  1.0000
  I   I20       1.0  0.13768  0.64535  0.79443  1.0000
  I   I21       1.0  0.33516  0.43078  0.75060  1.0000
  I   I22       1.0  0.53819  0.83044  0.92696  1.0000
  I   I23       1.0  0.52147  0.78890  0.02184  1.0000
  I   I24       1.0  0.42480  0.96368  0.46926  1.0000
  I   I25       1.0  0.27315  0.26344  0.24907  1.0000
  I   I26       1.0  0.01878  0.43199  0.48031  1.0000
  I   I27       1.0  0.34559  0.58151  0.79545  1.0000
  I   I28       1.0  0.57563  0.68633  0.76711  1.0000
  I   I29       1.0  0.06255  0.23123  0.22236  1.0000
  I   I30       1.0  0.80084  0.49502  0.02291  1.0000
  I   I31       1.0  0.84327  0.44956  0.24824  1.0000
  I   I32       1.0  0.83492  0.01119  0.91873  1.0000
  I   I33       1.0  0.53491  0.79711  0.30181  1.0000
  I   I34       1.0  0.84775  0.23061  0.13594  1.0000
  I   I35       1.0  0.96614  0.51187  0.75611  1.0000
  I   I36       1.0  0.84826  0.78041  0.54119  1.0000
  I   I37       1.0  0.13190  0.17025  0.68083  1.0000
  I   I38       1.0  0.43561  0.23499  0.07557  1.0000
  I   I39       1.0  0.26327  0.15174  0.54580  1.0000
  I   I40       1.0  0.66666  0.66027  0.32933  1.0000
  I   I41       1.0  0.14728  0.79805  0.63358  1.0000
  I   I42       1.0  0.00337  0.62360  0.16559  1.0000
  I   I43       1.0  0.21626  0.90091  0.26308  1.0000
  I   I44       1.0  0.80328  0.67792  0.03009  1.0000
  I   I45       1.0  0.71187  0.40220  0.68569  1.0000
  I   I46       1.0  0.99115  0.05149  0.42100  1.0000
  I   I47       1.0  0.66844  0.17154  0.18457  1.0000
  I   I48       1.0  0.37489  0.54854  0.14558  1.0000
  I   I49       1.0  0.86560  0.91810  0.65706  1.0000
  I   I50       1.0  0.76026  0.04232  0.72978  1.0000
  I   I51       1.0  0.69510  0.10297  0.74609  1.0000
  I   I52       1.0  0.34981  0.53140  0.45232  1.0000
  I   I53       1.0  0.01659  0.80682  0.13689  1.0000
  I   I54       1.0  0.39930  0.06411  0.10475  1.0000
  I   I55       1.0  0.13194  0.87136  0.94268  1.0000
  I   I56       1.0  0.23223  0.57004  0.04634  1.0000
  I   I57       1.0  0.90343  0.10912  0.26731  1.0000
  I   I58       1.0  0.84790  0.97125  0.39085  1.0000
  I   I59       1.0  0.84094  0.98305  0.25259  1.0000
  I   I60       1.0  0.36739  0.67549  0.36572  1.0000
  I   I61       1.0  0.30681  0.26169  0.35382  1.0000
  I   I62       1.0  0.36620  0.20377  0.33143  1.0000
  I   I63       1.0  0.19290  0.21298  0.12690  1.0000
  I   I64       1.0  0.93024  0.30088  0.63996  1.0000
  I   I65       1.0  0.89821  0.22562  0.81146  1.0000
  I   I66       1.0  0.67767  0.28276  0.93971  1.0000
  I   I67       1.0  0.63356  0.90345  0.17589  1.0000
  I   I68       1.0  0.38727  0.10124  0.77525  1.0000
  I   I69       1.0  0.35199  0.49510  0.98311  1.0000
  I   I70       1.0  0.51316  0.96760  0.43094  1.0000
  I   I71       1.0  0.58803  0.78505  0.77108  1.0000
  I   I72       1.0  0.80744  0.88882  0.37863  1.0000
  I   I73       1.0  0.36084  0.66249  0.63463  1.0000
  I   I74       1.0  0.99354  0.49013  0.58226  1.0000
  I   I75       1.0  0.03962  0.40667  0.60559  1.0000
  I   I76       1.0  0.73116  0.62956  0.82396  1.0000
  I   I77       1.0  0.70753  0.64497  0.72085  1.0000
  I   I78       1.0  0.03065  0.24563  0.34155  1.0000
  I   I79       1.0  0.53079  0.80748  0.43975  1.0000
  I   I80       1.0  0.79896  0.44463  0.34894  1.0000
  I   I81       1.0  0.83333  0.92197  0.95118  1.0000
  I   I82       1.0  0.84312  0.67802  0.61083  1.0000
  I   I83       1.0  0.80718  0.19481  0.12353  1.0000
  I   I84       1.0  0.97413  0.56613  0.83442  1.0000
  I   I85       1.0  0.19827  0.18580  0.63531  1.0000
  I   I86       1.0  0.58355  0.17294  0.35043  1.0000
  I   I87       1.0  0.49964  0.18523  0.08956  1.0000
  I   I88       1.0  0.97799  0.57185  0.37086  1.0000
  I   I89       1.0  0.65619  0.57913  0.47255  1.0000
  I   I90       1.0  0.19906  0.72414  0.61917  1.0000
  I   I91       1.0  0.64132  0.46289  0.66583  1.0000
  I   I92       1.0  0.93044  0.12496  0.98807  1.0000
  I   I93       1.0  0.73242  0.70226  0.02337  1.0000
  I   I94       1.0  0.41196  0.56396  0.07068  1.0000
  I   I95       1.0  0.95074  0.01336  0.48041  1.0000
  I   I96       1.0  0.67772  0.17248  0.04895  1.0000
  I   I97       1.0  0.83159  0.79412  0.91357  1.0000
  I   I98       1.0  0.85138  0.95529  0.52403  1.0000
  I   I99       1.0  0.70927  0.06889  0.63792  1.0000
  I   I100      1.0  0.38356  0.49164  0.32004  1.0000
  I   I101      1.0  0.46939  0.48609  0.57029  1.0000
  I   I102      1.0  0.07431  0.73810  0.17488  1.0000
  I   I103      1.0  0.11016  0.83706  0.02749  1.0000
  I   I104      1.0  0.02124  0.98790  0.02686  1.0000
  I   I105      1.0  0.80420  0.17993  0.29497  1.0000
  I   I106      1.0  0.27863  0.71341  0.29372  1.0000
  I   I107      1.0  0.79358  0.97315  0.30249  1.0000
  I   I108      1.0  0.31759  0.73774  0.38064  1.0000
  I   I109      1.0  0.38849  0.78250  0.06779  1.0000
  I   I110      1.0  0.36056  0.22478  0.60612  1.0000
  I   I111      1.0  0.24638  0.16417  0.05290  1.0000
  I   I112      1.0  0.76811  0.54674  0.53581  1.0000
  I   I113      1.0  0.88043  0.24623  0.63363  1.0000
  I   I114      1.0  0.12724  0.45823  0.84044  1.0000
  I   I115      1.0  0.69896  0.94952  0.36616  1.0000
  I   I116      1.0  0.63604  0.88429  0.31253  1.0000
  I   I117      1.0  0.37049  0.15860  0.67752  1.0000
  I   I118      1.0  0.48956  0.92704  0.38753  1.0000
  I   I119      1.0  0.55146  0.90265  0.29965  1.0000
  I   I120      1.0  0.84166  0.81686  0.33067  1.0000
  I   I121      1.0  0.34914  0.54248  0.69112  1.0000
  I   I122      1.0  0.23432  0.23764  0.21028  1.0000
  I   I123      1.0  0.09567  0.42947  0.40310  1.0000
  I   I124      1.0  0.86929  0.52279  0.06731  1.0000
  I   I125      1.0  0.63922  0.69044  0.79652  1.0000
  I   I126      1.0  0.10407  0.20764  0.35111  1.0000
  I   I127      1.0  0.48908  0.82836  0.53720  1.0000
  I   I128      1.0  0.72582  0.49297  0.40029  1.0000
  I   I129      1.0  0.88962  0.94132  0.94297  1.0000
  I   I130      1.0  0.87223  0.63137  0.85653  1.0000
  I   I131      1.0  0.81365  0.75585  0.62811  1.0000
  I   I132      1.0  0.80046  0.30069  0.12598  1.0000
  I   I133      1.0  0.51622  0.23458  0.17908  1.0000
  I   I134      1.0  0.56281  0.25626  0.31252  1.0000
  I   I135      1.0  0.48640  0.30496  0.32112  1.0000
  I   I136      1.0  0.21882  0.73179  0.75050  1.0000
  I   I137      1.0  0.00818  0.61560  0.31827  1.0000
  I   I138      1.0  0.62799  0.65218  0.23708  1.0000
  I   I139      1.0  0.74549  0.43004  0.77136  1.0000
  I   I140      1.0  0.91573  0.07560  0.05221  1.0000
  I   I141      1.0  0.81144  0.68455  0.90059  1.0000
  I   I142      1.0  0.39089  0.62650  0.08773  1.0000
  I   I143      1.0  0.95235  0.98811  0.33042  1.0000
  I   I144      1.0  0.58929  0.23561  0.12881  1.0000
  I   I145      1.0  0.91306  0.89686  0.55779  1.0000
  I   I146      1.0  0.61643  0.04076  0.83840  1.0000
  I   I147      1.0  0.82311  0.85764  0.91172  1.0000
  I   I148      1.0  0.47224  0.42118  0.51164  1.0000
  I   I149      1.0  0.96289  0.80002  0.08067  1.0000
  I   I150      1.0  0.42283  0.99878  0.06431  1.0000
  I   I151      1.0  0.99911  0.93514  0.01550  1.0000
  I   I152      1.0  0.24165  0.65694  0.17113  1.0000
  I   I153      1.0  0.78103  0.15964  0.41238  1.0000
  I   I154      1.0  0.12569  0.98316  0.26631  1.0000
  I   I155      1.0  0.11128  0.66912  0.92946  1.0000
  I   I156      1.0  0.28785  0.70635  0.43532  1.0000
  I   I157      1.0  0.34647  0.82768  0.93272  1.0000
  I   I158      1.0  0.23148  0.23140  0.94442  1.0000
  I   I159      1.0  0.31951  0.78203  0.92624  1.0000
  I   I160      1.0  0.85013  0.54613  0.35478  1.0000
  I   I161      1.0  0.15727  0.40156  0.69915  1.0000
  I   I162      1.0  0.82457  0.55901  0.47889  1.0000
  I   I163      1.0  0.70581  0.87347  0.24615  1.0000
  I   I164      1.0  0.42043  0.14908  0.82521  1.0000
  I   I165      1.0  0.37599  0.40862  0.87843  1.0000
  I   I166      1.0  0.49034  0.93839  0.53402  1.0000
  I   I167      1.0  0.54197  0.84646  0.79193  1.0000
  I   I168      1.0  0.37896  0.06330  0.41381  1.0000
  I   I169      1.0  0.25699  0.23676  0.34447  1.0000
  I   I170      1.0  0.21670  0.30850  0.36690  1.0000
  I   I171      1.0  0.36906  0.59512  0.64357  1.0000
  I   I172      1.0  0.84513  0.50954  0.94995  1.0000
  I   I173      1.0  0.08858  0.16452  0.25258  1.0000
  I   I174      1.0  0.84320  0.40337  0.09819  1.0000
  I   I175      1.0  0.71408  0.49558  0.25674  1.0000
  I   I176      1.0  0.85775  0.95034  0.83029  1.0000
  I   I177      1.0  0.46994  0.84711  0.39317  1.0000
  I   I178      1.0  0.78657  0.80043  0.49798  1.0000
  I   I179      1.0  0.78846  0.25351  0.05735  1.0000
  I   I180      1.0  0.92164  0.58778  0.76287  1.0000
  I   I181      1.0  0.14608  0.22910  0.56574  1.0000
  I   I182      1.0  0.62843  0.20128  0.37753  1.0000
  I   I183      1.0  0.45582  0.27966  0.09250  1.0000
  I   I184      1.0  0.02643  0.56125  0.24544  1.0000
  I   I185      1.0  0.69813  0.59391  0.22777  1.0000
  I   I186      1.0  0.14252  0.70225  0.64993  1.0000
  I   I187      1.0  0.87522  0.10335  0.93869  1.0000
  I   I188      1.0  0.73885  0.72804  0.91481  1.0000
  I   I189      1.0  0.65284  0.46717  0.79139  1.0000
  I   I190      1.0  0.00220  0.02297  0.31367  1.0000
  I   I191      1.0  0.63539  0.12579  0.18019  1.0000
  I   I192      1.0  0.35692  0.57216  0.00745  1.0000
  I   I193      1.0  0.85480  0.89361  0.48640  1.0000
  I   I194      1.0  0.61100  0.09596  0.05448  1.0000
  I   I195      1.0  0.76383  0.84658  0.88199  1.0000
  I   I196      1.0  0.40989  0.51268  0.49472  1.0000
  I   I197      1.0  0.16790  0.98120  0.17646  1.0000
  I   I198      1.0  0.39395  0.02752  0.25004  1.0000
  I   I199      1.0  0.06827  0.91566  0.98518  1.0000
  I   I200      1.0  0.21394  0.61402  0.22724  1.0000
  I   I201      1.0  0.80575  0.22221  0.37464  1.0000
  I   I202      1.0  0.79571  0.04881  0.18655  1.0000
  I   I203      1.0  0.27602  0.45553  0.82189  1.0000
  I   I204      1.0  0.35081  0.68262  0.23416  1.0000
  I   I205      1.0  0.33131  0.27729  0.45016  1.0000
  I   I206      1.0  0.29076  0.16067  0.96300  1.0000
  I   I207      1.0  0.30827  0.80357  0.05759  1.0000
  I   I208      1.0  0.89331  0.28939  0.55991  1.0000
  I   I209      1.0  0.19835  0.41115  0.80615  1.0000
  I   I210      1.0  0.89889  0.53358  0.44317  1.0000
  I   I211      1.0  0.65257  0.94928  0.21324  1.0000
  I   I212      1.0  0.45958  0.08224  0.75342  1.0000
  I   I213      1.0  0.40462  0.42183  0.98445  1.0000
  I   I214      1.0  0.57232  0.89862  0.44033  1.0000
  I   I215      1.0  0.59299  0.77665  0.91431  1.0000
  I   I216      1.0  0.37676  0.01021  0.37423  1.0000
  I   I217      1.0  0.19024  0.26584  0.31805  1.0000
  I   I218      1.0  0.08872  0.41672  0.54540  1.0000
  I   I219      1.0  0.41005  0.57958  0.75048  1.0000
  I   I220      1.0  0.60968  0.61488  0.80743  1.0000
  I   I221      1.0  0.05185  0.18729  0.37246  1.0000
  I   I222      1.0  0.78365  0.44026  0.02087  1.0000
  I   I223      1.0  0.76730  0.50624  0.31612  1.0000
  I   I224      1.0  0.78104  0.01135  0.03846  1.0000
  I   I225      1.0  0.43080  0.82060  0.48499  1.0000
  I   I226      1.0  0.82501  0.73902  0.44979  1.0000
  I   I227      1.0  0.80721  0.23691  0.23618  1.0000
  I   I228      1.0  0.89365  0.56027  0.85176  1.0000
  I   I229      1.0  0.24698  0.10616  0.60786  1.0000
  I   I230      1.0  0.48282  0.28906  0.42922  1.0000
  I   I231      1.0  0.45513  0.28739  0.95894  1.0000
  I   I232      1.0  0.04705  0.51507  0.33413  1.0000
  I   I233      1.0  0.62868  0.60631  0.31712  1.0000
  I   I234      1.0  0.14739  0.74263  0.53309  1.0000
  I   I235      1.0  0.16529  0.92390  0.15769  1.0000
  I   I236      1.0  0.72985  0.75621  0.09749  1.0000
  I   I237      1.0  0.70855  0.47485  0.67343  1.0000
  I   I238      1.0  0.93054  0.05192  0.37265  1.0000
  I   I239      1.0  0.61934  0.16671  0.07112  1.0000
  I   I240      1.0  0.41670  0.57702  0.95162  1.0000
  I   I241      1.0  0.95460  0.83347  0.61147  1.0000
  I   I242      1.0  0.68835  0.04894  0.86044  1.0000
  I   I243      1.0  0.80232  0.83546  0.03493  1.0000
  I   I244      1.0  0.38236  0.55323  0.35863  1.0000
  I   I245      1.0  0.03636  0.79227  0.28467  1.0000
  I   I246      1.0  0.45555  0.98760  0.19745  1.0000
  I   I247      1.0  0.06590  0.90064  0.09413  1.0000
  I   I248      1.0  0.26318  0.58416  0.16081  1.0000
  I   I249      1.0  0.86407  0.13275  0.38424  1.0000
  I   I250      1.0  0.75144  0.05426  0.28531  1.0000
  I   I251      1.0  0.08562  0.63332  0.84901  1.0000
  I   I252      1.0  0.32355  0.76061  0.27012  1.0000
  I   I253      1.0  0.36392  0.29055  0.54035  1.0000
  I   I254      1.0  0.21096  0.13948  0.13178  1.0000
  I   I255      1.0  0.27789  0.85140  0.92584  1.0000
  I   I256      1.0  0.89607  0.18236  0.69980  1.0000
  I   I257      1.0  0.14335  0.47427  0.72218  1.0000
  I   I258      1.0  0.82332  0.47999  0.57704  1.0000
  I   I259      1.0  0.69662  0.98072  0.24816  1.0000
  I   I260      1.0  0.38611  0.21850  0.73668  1.0000
  I   I261      1.0  0.31923  0.46050  0.92770  1.0000
  I   I262      1.0  0.55585  0.95877  0.34558  1.0000
  I   I263      1.0  0.52699  0.79421  0.84635  1.0000
  I   I264      1.0  0.38678  0.01549  0.52687  1.0000
  I   I265      1.0  0.19232  0.30761  0.23106  1.0000
  I   I266      1.0  0.04296  0.47797  0.49458  1.0000
  I   I267      1.0  0.41391  0.51884  0.78353  1.0000
  I   I268      1.0  0.67227  0.62155  0.86346  1.0000
  I   I269      1.0  0.96177  0.22074  0.40684  1.0000
  I   I270      1.0  0.80406  0.55752  0.04021  1.0000
  I   I271      1.0  0.80364  0.41397  0.22386  1.0000
  I   I272      1.0  0.75409  0.96148  0.02408  1.0000
  I   I273      1.0  0.46059  0.79798  0.36493  1.0000
  I   I274      1.0  0.83555  0.66901  0.48587  1.0000
  I   I275      1.0  0.74170  0.32524  0.01691  1.0000
  I   I276      1.0  0.93250  0.57258  0.92116  1.0000
  I   I277      1.0  0.13955  0.23360  0.69294  1.0000
  I   I278      1.0  0.54762  0.28200  0.42868  1.0000
  I   I279      1.0  0.51079  0.23239  0.02537  1.0000
  I   I280      1.0  0.07863  0.57003  0.20192  1.0000
  I   I281      1.0  0.60085  0.64771  0.42964  1.0000
  I   I282      1.0  0.22130  0.77163  0.62675  1.0000
  I   I283      1.0  0.15132  0.91508  0.26495  1.0000
  I   I284      1.0  0.69530  0.79597  0.99464  1.0000
  I   I285      1.0  0.69629  0.40753  0.80421  1.0000
  I   I286      1.0  0.02249  0.97890  0.41171  1.0000
  I   I287      1.0  0.66701  0.09878  0.07540  1.0000
  I   I288      1.0  0.35245  0.60833  0.18071  1.0000
  I   I289      1.0  0.93140  0.88782  0.70027  1.0000
  I   I290      1.0  0.60738  0.07189  0.18773  1.0000
  I   I291      1.0  0.64911  0.06955  0.75585  1.0000
  I   I292      1.0  0.44164  0.47375  0.40138  1.0000
  I   I293      1.0  0.96452  0.83252  0.21931  1.0000
  I   I294      1.0  0.36159  0.01709  0.15325  1.0000
  I   I295      1.0  0.15054  0.87830  0.05787  1.0000
  I   I296      1.0  0.17082  0.62174  0.13008  1.0000
  I   I297      1.0  0.83756  0.10561  0.27676  1.0000
  I   I298      1.0  0.23966  0.88501  0.14548  1.0000
  I   I299      1.0  0.82475  0.03928  0.32876  1.0000
  I   I300      1.0  0.38885  0.71671  0.30083  1.0000
  I   I301      1.0  0.34625  0.83578  0.12448  1.0000
  I   I302      1.0  0.30648  0.27712  0.55994  1.0000
  I   I303      1.0  0.19046  0.16774  0.98847  1.0000
  I   I304      1.0  0.88627  0.47369  0.39585  1.0000
  I   I305      1.0  0.86518  0.32925  0.69382  1.0000
  I   I306      1.0  0.69549  0.27631  0.79303  1.0000
  I   I307      1.0  0.63956  0.01541  0.31771  1.0000
  I   I308      1.0  0.41708  0.08497  0.64438  1.0000
  I   I309      1.0  0.39168  0.46281  0.85988  1.0000
  I   I310      1.0  0.44983  0.00961  0.49435  1.0000
  I   I311      1.0  0.55895  0.82389  0.05438  1.0000
  I   I312      1.0  0.89067  0.84215  0.34878  1.0000
  I   I313      1.0  0.42868  0.61792  0.66164  1.0000
  I   I314      1.0  0.28051  0.25204  0.12949  1.0000
  I   I315      1.0  0.07710  0.37872  0.44108  1.0000
  I   I316      1.0  0.84456  0.42056  0.95013  1.0000
  I   I317      1.0  0.60215  0.66582  0.89560  1.0000
  I   I318      1.0  0.96083  0.27745  0.34075  1.0000
  I   I319      1.0  0.48356  0.76695  0.48819  1.0000
  I   I320      1.0  0.74785  0.42870  0.32860  1.0000
  I   I321      1.0  0.82552  0.94704  0.08005  1.0000
  I   I322      1.0  0.86523  0.71541  0.54338  1.0000
  I   I323      1.0  0.74814  0.26637  0.15297  1.0000
  I   I324      1.0  0.96126  0.50251  0.88118  1.0000
  I   I325      1.0  0.22552  0.12549  0.47557  1.0000
  I   I326      1.0  0.56894  0.21916  0.46939  1.0000
  I   I327      1.0  0.47126  0.21239  0.95330  1.0000
  I   I328      1.0  0.05047  0.64075  0.24266  1.0000
  I   I329      1.0  0.68935  0.58876  0.35751  1.0000
  I   I330      1.0  0.15349  0.75083  0.71344  1.0000
  I   I331      1.0  0.62160  0.42774  0.76915  1.0000
  I   I332      1.0  0.20067  0.96618  0.28799  1.0000
  I   I333      1.0  0.76775  0.65364  0.92790  1.0000
  I   I334      1.0  0.37222  0.65040  0.96426  1.0000
  I   I335      1.0  0.91029  0.97848  0.44907  1.0000
  I   I336      1.0  0.63591  0.24684  0.10422  1.0000
  I   I337      1.0  0.81427  0.91877  0.59385  1.0000
  I   I338      1.0  0.67852  0.05033  0.16155  1.0000
  I   I339      1.0  0.68799  0.98169  0.80971  1.0000
  I   I340      1.0  0.49511  0.47103  0.44567  1.0000
  I   I341      1.0  0.00603  0.74393  0.16943  1.0000
  I   I342      1.0  0.35776  0.08731  0.24210  1.0000
  I   I343      1.0  0.00426  0.96405  0.13081  1.0000
  I   I344      1.0  0.22366  0.53942  0.15431  1.0000
  I   I345      1.0  0.86380  0.15091  0.20192  1.0000
  I   I346      1.0  0.24067  0.93906  0.15920  1.0000
  I   I347      1.0  0.77772  0.99112  0.18574  1.0000
  I   I348      1.0  0.31872  0.64948  0.36676  1.0000
  I   I349      1.0  0.38674  0.84604  0.01811  1.0000
  I   I350      1.0  0.32621  0.20575  0.43525  1.0000
  I   I351      1.0  0.22407  0.18236  0.88964  1.0000
  I   I352      1.0  0.83113  0.53678  0.62047  1.0000
  I   I353      1.0  0.83995  0.24369  0.73855  1.0000
  I   I354      1.0  0.69914  0.33223  0.85435  1.0000
  I   I355      1.0  0.64531  0.93806  0.33000  1.0000
  I   I356      1.0  0.43181  0.14812  0.69596  1.0000
  I   I357      1.0  0.31790  0.38956  0.88542  1.0000
  I   I358      1.0  0.44606  0.00545  0.38275  1.0000
  I   I359      1.0  0.59656  0.74394  0.03224  1.0000
  I   I360      1.0  0.84202  0.83797  0.46834  1.0000
  I   I361      1.0  0.35180  0.64581  0.75251  1.0000
  I   I362      1.0  0.22078  0.31226  0.10636  1.0000
  I   I363      1.0  0.06346  0.45442  0.63908  1.0000
  I   I364      1.0  0.85919  0.45555  0.07122  1.0000
  I   I365      1.0  0.64967  0.64356  0.72502  1.0000
  I   I366      1.0  0.99826  0.20937  0.28244  1.0000
  I   I367      1.0  0.53755  0.74710  0.39226  1.0000
  I   I368      1.0  0.79390  0.47894  0.17561  1.0000
  I   I369      1.0  0.79030  0.97419  0.90723  1.0000
  I   I370      1.0  0.77733  0.73344  0.53210  1.0000
  I   I371      1.0  0.73092  0.33889  0.14611  1.0000
  I   I372      1.0  0.93644  0.63527  0.82299  1.0000
  I   I373      1.0  0.17133  0.15569  0.57508  1.0000
  I   I374      1.0  0.52526  0.22220  0.37269  1.0000
  I   I375      1.0  0.45590  0.23377  0.18486  1.0000
  I   I376      1.0  0.03554  0.57107  0.41321  1.0000
  I   I377      1.0  0.66528  0.63266  0.46498  1.0000
  I   I378      1.0  0.09619  0.76875  0.63395  1.0000
  I   I379      1.0  0.65782  0.39191  0.67390  1.0000
  I   I380      1.0  0.95726  0.05615  0.92780  1.0000
  I   I381      1.0  0.77552  0.74703  0.00105  1.0000
  I   I382      1.0  0.33070  0.63746  0.03606  1.0000
  I   I383      1.0  0.87249  0.05028  0.41966  1.0000
  I   I384      1.0  0.61364  0.23087  0.99862  1.0000
