data_image0
_chemical_formula_structural       Ti96I384
_chemical_formula_sum              "Ti96 I384"
_cell_length_a       72.8432
_cell_length_b       72.8381
_cell_length_c       35.5929
_cell_angle_alpha    88.7757
_cell_angle_beta     88.7757
_cell_angle_gamma    62.1586

_space_group_name_H-M_alt    "P 1"
_space_group_IT_number       1

loop_
  _space_group_symop_operation_xyz
  'x, y, z'

loop_
  _atom_site_type_symbol
  _atom_site_label
  _atom_site_symmetry_multiplicity
  _atom_site_fract_x
  _atom_site_fract_y
  _atom_site_fract_z
  _atom_site_occupancy
  Ti  Ti1       1.0  0.57646  0.48557  0.64574  1.0000
  Ti  Ti2       1.0  0.24442  0.87486  0.22844  1.0000
  Ti  Ti3       1.0  0.40214  0.03614  0.88271  1.0000
  Ti  Ti4       1.0  0.02489  0.36608  0.04155  1.0000
  Ti  Ti5       1.0  0.60961  0.54985  0.30902  1.0000
  Ti  Ti6       1.0  0.46673  0.16467  0.27971  1.0000
  Ti  Ti7       1.0  0.57066  0.81661  0.16755  1.0000
  Ti  Ti8       1.0  0.21712  0.53505  0.94760  1.0000
  Ti  Ti9       1.0  0.40911  0.30805  0.14583  1.0000
  Ti  Ti10      1.0  0.66209  0.59025  0.81918  1.0000
  Ti  Ti11      1.0  0.25354  0.12328  0.83051  1.0000
  Ti  Ti12      1.0  0.88557  0.26473  0.99206  1.0000
  Ti  Ti13      1.0  0.70389  0.73630  0.50843  1.0000
  Ti  Ti14      1.0  0.06122  0.37606  0.02502  1.0000
  Ti  Ti15      1.0  0.74609  0.61631  0.57227  1.0000
  Ti  Ti16      1.0  0.29662  0.53567  0.03330  1.0000
  Ti  Ti17      1.0  0.04515  0.20563  0.06288  1.0000
  Ti  Ti18      1.0  0.25744  0.28310  0.96877  1.0000
  Ti  Ti19      1.0  0.10301  0.80859  0.33444  1.0000
  Ti  Ti20      1.0  0.27936  0.79672  0.47730  1.0000
  Ti  Ti21      1.0  0.16552  0.58750  0.95942  1.0000
  Ti  Ti22      1.0  0.08594  0.15052  0.29105  1.0000
  Ti  Ti23      1.0  0.17249  0.02637  0.35007  1.0000
  Ti  Ti24      1.0  0.82424  0.06855  0.15670  1.0000
  Ti  Ti25      1.0  0.52164  0.45977  0.32307  1.0000
  Ti  Ti26      1.0  0.57164  0.90689  0.68078  1.0000
  Ti  Ti27      1.0  0.77629  0.34776  0.26820  1.0000
  Ti  Ti28      1.0  0.31026  0.04922  0.19416  1.0000
  Ti  Ti29      1.0  0.29014  0.77297  0.04732  1.0000
  Ti  Ti30      1.0  0.28591  0.94577  0.53308  1.0000
  Ti  Ti31      1.0  0.45244  0.92147  0.57588  1.0000
  Ti  Ti32      1.0  0.40134  0.84913  0.92727  1.0000
  Ti  Ti33      1.0  0.31086  0.60059  0.22471  1.0000
  Ti  Ti34      1.0  0.77193  0.49506  0.14964  1.0000
  Ti  Ti35      1.0  0.06851  0.55191  0.38479  1.0000
  Ti  Ti36      1.0  0.79611  0.14705  0.14659  1.0000
  Ti  Ti37      1.0  0.08541  0.08378  0.74668  1.0000
  Ti  Ti38      1.0  0.59364  0.91861  0.09007  1.0000
  Ti  Ti39      1.0  0.59786  0.89459  0.85419  1.0000
  Ti  Ti40      1.0  0.56846  0.75643  0.66621  1.0000
  Ti  Ti41      1.0  0.60393  0.43025  0.92930  1.0000
  Ti  Ti42      1.0  0.99065  0.58159  0.87751  1.0000
  Ti  Ti43      1.0  0.90861  0.03065  0.06608  1.0000
  Ti  Ti44      1.0  0.65180  0.44912  0.91845  1.0000
  Ti  Ti45      1.0  0.14839  0.15377  0.57710  1.0000
  Ti  Ti46      1.0  0.34226  0.05264  0.91264  1.0000
  Ti  Ti47      1.0  0.15434  0.94016  0.93894  1.0000
  Ti  Ti48      1.0  0.06165  0.01175  0.11224  1.0000
  Ti  Ti49      1.0  0.82431  0.86470  0.56494  1.0000
  Ti  Ti50      1.0  0.90618  0.44126  0.19981  1.0000
  Ti  Ti51      1.0  0.26039  0.92045  0.16329  1.0000
  Ti  Ti52      1.0  0.77601  0.47404  0.68145  1.0000
  Ti  Ti53      1.0  0.80816  0.75241  0.07101  1.0000
  Ti  Ti54      1.0  0.61166  0.20722  0.28420  1.0000
  Ti  Ti55      1.0  0.62418  0.81310  0.20929  1.0000
  Ti  Ti56      1.0  0.14109  0.77862  0.79416  1.0000
  Ti  Ti57      1.0  0.43455  0.28103  0.08681  1.0000
  Ti  Ti58      1.0  0.35483  0.54030  0.50374  1.0000
  Ti  Ti59      1.0  0.62523  0.93069  0.51262  1.0000
  Ti  Ti60      1.0  0.93924  0.23240  0.07334  1.0000
  Ti  Ti61      1.0  0.71177  0.63577  0.50961  1.0000
  Ti  Ti62      1.0  0.71183  0.75722  0.38935  1.0000
  Ti  Ti63      1.0  0.10680  0.68285  0.07941  1.0000
  Ti  Ti64      1.0  0.22730  0.29995  0.03873  1.0000
  Ti  Ti65      1.0  0.95993  0.73848  0.35195  1.0000
  Ti  Ti66      1.0  0.64204  0.27867  0.21280  1.0000
  Ti  Ti67      1.0  0.87725  0.54061  0.40750  1.0000
  Ti  Ti68      1.0  0.04352  0.81945  0.34127  1.0000
  Ti  Ti69      1.0  0.58655  0.85566  0.59714  1.0000
  Ti  Ti70      1.0  0.90450  0.56172  0.40868  1.0000
  Ti  Ti71      1.0  0.15599  0.06734  0.36460  1.0000
  Ti  Ti72      1.0  0.14897  0.98872  0.88013  1.0000
  Ti  Ti73      1.0  0.73438  0.40112  0.22006  1.0000
  Ti  Ti74      1.0  0.55468  0.41667  0.30487  1.0000
  Ti  Ti75      1.0  0.45140  0.09716  0.05912  1.0000
  Ti  Ti76      1.0  0.25128  0.10702  0.21123  1.0000
  Ti  Ti77      1.0  0.04134  0.76271  0.63860  1.0000
  Ti  Ti78      1.0  0.24388  0.77602  0.01845  1.0000
  Ti  Ti79      1.0  0.78712  0.89770  0.11523  1.0000
  Ti  Ti80      1.0  0.04298  0.43289  0.36249  1.0000
  Ti  Ti81      1.0  0.34603  0.87085  0.90141  1.0000
  Ti  Ti82      1.0  0.93349  0.23069  0.32062  1.0000
  Ti  Ti83      1.0  0.12433  0.50087  0.43165  1.0000
  Ti  Ti84      1.0  0.81826  0.18656  0.12675  1.0000
  Ti  Ti85      1.0  0.11138  0.10597  0.74841  1.0000
  Ti  Ti86      1.0  0.70446  0.22735  0.22015  1.0000
  Ti  Ti87      1.0  0.12682  0.21491  0.58692  1.0000
  Ti  Ti88      1.0  0.81125  0.48390  0.70688  1.0000
  Ti  Ti89      1.0  0.38738  0.40078  0.30434  1.0000
  Ti  Ti90      1.0  0.93117  0.63207  0.80322  1.0000
  Ti  Ti91      1.0  0.19532  0.55137  0.34461  1.0000
  Ti  Ti92      1.0  0.49517  0.73208  0.37326  1.0000
  Ti  Ti93      1.0  0.93667  0.15811  0.10075  1.0000
  Ti  Ti94      1.0  0.05074  0.96865  0.18594  1.0000
  Ti  Ti95      1.0  0.27545  0.39634  0.01912  1.0000
  Ti  Ti96      1.0  0.91794  0.34161  0.53871  1.0000
  I   I1        1.0  0.16626  0.01579  0.88368  1.0000
  I   I2        1.0  0.26677  0.88085  0.16080  1.0000
  I   I3        1.0  0.85834  0.86337  0.55635  1.0000
  I   I4        1.0  0.83254  0.73180  0.12303  1.0000
  I   I5        1.0  0.50690  0.14049  0.26644  1.0000
  I   I6        1.0  0.56876  0.23549  0.28953  1.0000
  I   I7        1.0  0.25842  0.51914  0.94378  1.0000
  I   I8        1.0  0.14702  0.81387  0.80516  1.0000
  I   I9        1.0  0.42799  0.32611  0.09682  1.0000
  I   I10       1.0  0.69610  0.59304  0.80566  1.0000
  I   I11       1.0  0.21293  0.15696  0.84978  1.0000
  I   I12       1.0  0.58889  0.52807  0.32038  1.0000
  I   I13       1.0  0.71492  0.76328  0.46867  1.0000
  I   I14       1.0  0.07769  0.69106  0.12676  1.0000
  I   I15       1.0  0.77866  0.58417  0.54938  1.0000
  I   I16       1.0  0.64325  0.62207  0.86053  1.0000
  I   I17       1.0  0.62974  0.31729  0.22447  1.0000
  I   I18       1.0  0.24850  0.29233  0.90273  1.0000
  I   I19       1.0  0.25128  0.83196  0.50166  1.0000
  I   I20       1.0  0.25484  0.10845  0.89928  1.0000
  I   I21       1.0  0.20211  0.56861  0.90147  1.0000
  I   I22       1.0  0.20609  0.99961  0.31469  1.0000
  I   I23       1.0  0.20065  0.04234  0.35057  1.0000
  I   I24       1.0  0.86618  0.51868  0.45704  1.0000
  I   I25       1.0  0.51597  0.49477  0.29151  1.0000
  I   I26       1.0  0.48942  0.09317  0.05441  1.0000
  I   I27       1.0  0.80916  0.34412  0.30028  1.0000
  I   I28       1.0  0.30686  0.01480  0.22914  1.0000
  I   I29       1.0  0.28454  0.74115  0.04344  1.0000
  I   I30       1.0  0.29852  0.90612  0.52137  1.0000
  I   I31       1.0  0.04408  0.41018  0.42317  1.0000
  I   I32       1.0  0.37343  0.83360  0.92287  1.0000
  I   I33       1.0  0.77633  0.88589  0.18049  1.0000
  I   I34       1.0  0.08613  0.50670  0.41277  1.0000
  I   I35       1.0  0.83876  0.14749  0.15034  1.0000
  I   I36       1.0  0.73936  0.51346  0.10948  1.0000
  I   I37       1.0  0.07161  0.11503  0.79508  1.0000
  I   I38       1.0  0.62596  0.85561  0.83675  1.0000
  I   I39       1.0  0.10460  0.09016  0.68782  1.0000
  I   I40       1.0  0.61922  0.45568  0.98169  1.0000
  I   I41       1.0  0.97900  0.61241  0.82443  1.0000
  I   I42       1.0  0.57263  0.73156  0.61603  1.0000
  I   I43       1.0  0.37739  0.53530  0.56143  1.0000
  I   I44       1.0  0.68101  0.41933  0.88314  1.0000
  I   I45       1.0  0.13125  0.19188  0.52759  1.0000
  I   I46       1.0  0.26106  0.41340  0.95103  1.0000
  I   I47       1.0  0.17961  0.94008  0.88920  1.0000
  I   I48       1.0  0.07044  0.92880  0.22262  1.0000
  I   I49       1.0  0.82529  0.82684  0.57035  1.0000
  I   I50       1.0  0.24587  0.95954  0.19314  1.0000
  I   I51       1.0  0.26686  0.88354  0.27696  1.0000
  I   I52       1.0  0.01161  0.46852  0.37066  1.0000
  I   I53       1.0  0.81646  0.73870  0.00534  1.0000
  I   I54       1.0  0.60922  0.22156  0.21486  1.0000
  I   I55       1.0  0.60013  0.79790  0.24859  1.0000
  I   I56       1.0  0.14295  0.61189  0.89749  1.0000
  I   I57       1.0  0.25679  0.37055  0.01575  1.0000
  I   I58       1.0  0.65248  0.57914  0.75699  1.0000
  I   I59       1.0  0.61037  0.92059  0.46045  1.0000
  I   I60       1.0  0.87210  0.25488  0.93548  1.0000
  I   I61       1.0  0.73702  0.77146  0.36328  1.0000
  I   I62       1.0  0.72654  0.72563  0.34356  1.0000
  I   I63       1.0  0.10242  0.66032  0.02583  1.0000
  I   I64       1.0  0.26887  0.53620  0.08210  1.0000
  I   I65       1.0  0.99689  0.71179  0.37494  1.0000
  I   I66       1.0  0.60722  0.28059  0.22904  1.0000
  I   I67       1.0  0.13104  0.80440  0.38092  1.0000
  I   I68       1.0  0.27833  0.78552  0.40329  1.0000
  I   I69       1.0  0.57253  0.83368  0.56507  1.0000
  I   I70       1.0  0.87870  0.59930  0.43519  1.0000
  I   I71       1.0  0.12100  0.05952  0.38216  1.0000
  I   I72       1.0  0.11075  0.01672  0.86871  1.0000
  I   I73       1.0  0.70217  0.40428  0.18173  1.0000
  I   I74       1.0  0.58982  0.87976  0.73203  1.0000
  I   I75       1.0  0.53995  0.92740  0.72818  1.0000
  I   I76       1.0  0.03358  0.79889  0.61289  1.0000
  I   I77       1.0  0.07891  0.74410  0.61080  1.0000
  I   I78       1.0  0.55888  0.52022  0.68717  1.0000
  I   I79       1.0  0.27368  0.62295  0.25211  1.0000
  I   I80       1.0  0.43503  0.96389  0.56948  1.0000
  I   I81       1.0  0.33326  0.90892  0.86930  1.0000
  I   I82       1.0  0.97168  0.22968  0.32712  1.0000
  I   I83       1.0  0.05135  0.56092  0.45027  1.0000
  I   I84       1.0  0.79137  0.16466  0.07630  1.0000
  I   I85       1.0  0.05359  0.08649  0.71240  1.0000
  I   I86       1.0  0.64913  0.28132  0.14328  1.0000
  I   I87       1.0  0.59954  0.91393  0.91235  1.0000
  I   I88       1.0  0.56166  0.74549  0.73483  1.0000
  I   I89       1.0  0.59764  0.40028  0.90529  1.0000
  I   I90       1.0  0.92124  0.64979  0.86826  1.0000
  I   I91       1.0  0.21906  0.54905  0.28188  1.0000
  I   I92       1.0  0.52272  0.74665  0.39157  1.0000
  I   I93       1.0  0.67192  0.45333  0.97321  1.0000
  I   I94       1.0  0.02721  0.97347  0.24693  1.0000
  I   I95       1.0  0.32514  0.06962  0.97613  1.0000
  I   I96       1.0  0.89487  0.34169  0.59464  1.0000
  I   I97       1.0  0.43411  0.00258  0.92378  1.0000
  I   I98       1.0  0.56221  0.46237  0.68782  1.0000
  I   I99       1.0  0.23803  0.92984  0.10378  1.0000
  I   I100      1.0  0.05703  0.37418  0.95476  1.0000
  I   I101      1.0  0.84900  0.45169  0.69373  1.0000
  I   I102      1.0  0.64995  0.52450  0.29081  1.0000
  I   I103      1.0  0.55385  0.79273  0.17217  1.0000
  I   I104      1.0  0.61305  0.78779  0.14972  1.0000
  I   I105      1.0  0.40172  0.29478  0.21005  1.0000
  I   I106      1.0  0.89883  0.28710  0.95601  1.0000
  I   I107      1.0  0.65017  0.57262  0.88066  1.0000
  I   I108      1.0  0.89141  0.24536  0.06772  1.0000
  I   I109      1.0  0.71340  0.60338  0.57121  1.0000
  I   I110      1.0  0.67956  0.78688  0.36767  1.0000
  I   I111      1.0  0.13787  0.65085  0.11409  1.0000
  I   I112      1.0  0.25723  0.25530  0.02654  1.0000
  I   I113      1.0  0.96001  0.75269  0.28038  1.0000
  I   I114      1.0  0.02969  0.19484  0.00244  1.0000
  I   I115      1.0  0.86831  0.53050  0.34216  1.0000
  I   I116      1.0  0.93765  0.56551  0.38492  1.0000
  I   I117      1.0  0.08608  0.79617  0.39384  1.0000
  I   I118      1.0  0.10537  0.12200  0.23376  1.0000
  I   I119      1.0  0.88283  0.56482  0.33814  1.0000
  I   I120      1.0  0.14408  0.98242  0.95500  1.0000
  I   I121      1.0  0.74246  0.42466  0.17227  1.0000
  I   I122      1.0  0.49405  0.47395  0.37458  1.0000
  I   I123      1.0  0.44547  0.07976  0.99851  1.0000
  I   I124      1.0  0.24629  0.95443  0.52891  1.0000
  I   I125      1.0  0.33688  0.02576  0.14502  1.0000
  I   I126      1.0  0.32019  0.75882  0.99743  1.0000
  I   I127      1.0  0.34042  0.60429  0.27013  1.0000
  I   I128      1.0  0.99008  0.38473  0.00319  1.0000
  I   I129      1.0  0.33012  0.86168  0.84127  1.0000
  I   I130      1.0  0.80392  0.10030  0.10131  1.0000
  I   I131      1.0  0.90312  0.24372  0.36827  1.0000
  I   I132      1.0  0.02912  0.57100  0.36049  1.0000
  I   I133      1.0  0.56538  0.88571  0.84399  1.0000
  I   I134      1.0  0.63089  0.91374  0.06960  1.0000
  I   I135      1.0  0.67873  0.26765  0.24559  1.0000
  I   I136      1.0  0.89393  0.63532  0.78870  1.0000
  I   I137      1.0  0.76812  0.51429  0.68157  1.0000
  I   I138      1.0  0.38139  0.39406  0.37696  1.0000
  I   I139      1.0  0.15818  0.58262  0.35351  1.0000
  I   I140      1.0  0.49595  0.73496  0.29881  1.0000
  I   I141      1.0  0.96729  0.13939  0.05104  1.0000
  I   I142      1.0  0.05455  0.98399  0.07060  1.0000
  I   I143      1.0  0.36066  0.08141  0.89208  1.0000
  I   I144      1.0  0.93174  0.30437  0.51226  1.0000
  I   I145      1.0  0.60975  0.47430  0.67993  1.0000
  I   I146      1.0  0.26688  0.83424  0.22861  1.0000
  I   I147      1.0  0.39272  0.01568  0.83023  1.0000
  I   I148      1.0  0.81196  0.46530  0.63571  1.0000
  I   I149      1.0  0.61334  0.56889  0.36424  1.0000
  I   I150      1.0  0.47259  0.19011  0.32160  1.0000
  I   I151      1.0  0.66191  0.78890  0.22629  1.0000
  I   I152      1.0  0.16154  0.62131  0.97738  1.0000
  I   I153      1.0  0.45722  0.28604  0.02606  1.0000
  I   I154      1.0  0.89755  0.06816  0.09066  1.0000
  I   I155      1.0  0.28389  0.13337  0.81886  1.0000
  I   I156      1.0  0.92707  0.22031  0.00740  1.0000
  I   I157      1.0  0.75745  0.64647  0.57566  1.0000
  I   I158      1.0  0.13391  0.69596  0.05532  1.0000
  I   I159      1.0  0.69872  0.67220  0.47361  1.0000
  I   I160      1.0  0.19934  0.30941  0.09225  1.0000
  I   I161      1.0  0.04490  0.18758  0.12885  1.0000
  I   I162      1.0  0.29767  0.26889  0.95549  1.0000
  I   I163      1.0  0.01373  0.82782  0.29471  1.0000
  I   I164      1.0  0.03602  0.78568  0.34414  1.0000
  I   I165      1.0  0.23004  0.50571  0.89117  1.0000
  I   I166      1.0  0.05427  0.15602  0.33835  1.0000
  I   I167      1.0  0.14862  0.05122  0.29019  1.0000
  I   I168      1.0  0.81042  0.04412  0.13699  1.0000
  I   I169      1.0  0.58425  0.39306  0.34778  1.0000
  I   I170      1.0  0.52578  0.42570  0.36809  1.0000
  I   I171      1.0  0.72980  0.36425  0.26694  1.0000
  I   I172      1.0  0.32194  0.06124  0.24980  1.0000
  I   I173      1.0  0.26651  0.76926  0.95307  1.0000
  I   I174      1.0  0.29072  0.97630  0.55963  1.0000
  I   I175      1.0  0.46764  0.90669  0.64299  1.0000
  I   I176      1.0  0.43269  0.85770  0.91293  1.0000
  I   I177      1.0  0.81152  0.90095  0.06010  1.0000
  I   I178      1.0  0.90773  0.23173  0.26988  1.0000
  I   I179      1.0  0.13895  0.46032  0.43611  1.0000
  I   I180      1.0  0.83016  0.20094  0.18423  1.0000
  I   I181      1.0  0.13153  0.06596  0.76494  1.0000
  I   I182      1.0  0.66007  0.23518  0.21562  1.0000
  I   I183      1.0  0.14195  0.14386  0.51226  1.0000
  I   I184      1.0  0.78433  0.43844  0.67012  1.0000
  I   I185      1.0  0.35967  0.39704  0.27063  1.0000
  I   I186      1.0  0.97322  0.58852  0.94404  1.0000
  I   I187      1.0  0.50520  0.69379  0.37680  1.0000
  I   I188      1.0  0.65457  0.48104  0.88604  1.0000
  I   I189      1.0  0.12661  0.17368  0.63971  1.0000
  I   I190      1.0  0.30853  0.07562  0.87850  1.0000
  I   I191      1.0  0.93861  0.41505  0.24595  1.0000
  I   I192      1.0  0.08412  0.96558  0.16272  1.0000
  I   I193      1.0  0.30952  0.78178  0.09696  1.0000
  I   I194      1.0  0.90876  0.45839  0.13661  1.0000
  I   I195      1.0  0.41717  0.05798  0.84209  1.0000
  I   I196      1.0  0.00572  0.36866  0.10960  1.0000
  I   I197      1.0  0.32598  0.53845  0.54721  1.0000
  I   I198      1.0  0.45713  0.17844  0.21039  1.0000
  I   I199      1.0  0.61099  0.84682  0.24869  1.0000
  I   I200      1.0  0.16135  0.74657  0.83741  1.0000
  I   I201      1.0  0.37539  0.34560  0.14353  1.0000
  I   I202      1.0  0.59466  0.95754  0.55593  1.0000
  I   I203      1.0  0.59990  0.88879  0.61775  1.0000
  I   I204      1.0  0.94398  0.26154  0.02937  1.0000
  I   I205      1.0  0.70329  0.75780  0.56274  1.0000
  I   I206      1.0  0.06238  0.41081  0.04856  1.0000
  I   I207      1.0  0.74651  0.61386  0.64706  1.0000
  I   I208      1.0  0.31994  0.54984  0.05720  1.0000
  I   I209      1.0  0.02108  0.24346  0.05074  1.0000
  I   I210      1.0  0.82485  0.86746  0.13209  1.0000
  I   I211      1.0  0.84215  0.57695  0.40620  1.0000
  I   I212      1.0  0.28829  0.75951  0.50225  1.0000
  I   I213      1.0  0.57971  0.88065  0.53102  1.0000
  I   I214      1.0  0.11196  0.14484  0.34540  1.0000
  I   I215      1.0  0.15656  0.99853  0.34593  1.0000
  I   I216      1.0  0.82822  0.05747  0.22399  1.0000
  I   I217      1.0  0.55084  0.45865  0.37329  1.0000
  I   I218      1.0  0.43131  0.13708  0.06537  1.0000
  I   I219      1.0  0.78170  0.31069  0.24795  1.0000
  I   I220      1.0  0.01270  0.76027  0.58749  1.0000
  I   I221      1.0  0.25412  0.76658  0.09959  1.0000
  I   I222      1.0  0.29162  0.08562  0.15560  1.0000
  I   I223      1.0  0.42194  0.91284  0.55830  1.0000
  I   I224      1.0  0.39451  0.84379  0.85158  1.0000
  I   I225      1.0  0.32734  0.55984  0.23861  1.0000
  I   I226      1.0  0.91697  0.27250  0.30515  1.0000
  I   I227      1.0  0.10715  0.54833  0.41886  1.0000
  I   I228      1.0  0.79089  0.22153  0.10384  1.0000
  I   I229      1.0  0.08127  0.20733  0.06463  1.0000
  I   I230      1.0  0.57998  0.95985  0.09259  1.0000
  I   I231      1.0  0.60383  0.91445  0.79637  1.0000
  I   I232      1.0  0.01825  0.40510  0.02778  1.0000
  I   I233      1.0  0.58660  0.43376  0.99523  1.0000
  I   I234      1.0  0.95422  0.58793  0.83305  1.0000
  I   I235      1.0  0.88404  0.01588  0.03760  1.0000
  I   I236      1.0  0.92045  0.13464  0.08315  1.0000
  I   I237      1.0  0.21563  0.56166  0.39523  1.0000
  I   I238      1.0  0.29368  0.41929  0.02666  1.0000
  I   I239      1.0  0.92138  0.35735  0.47212  1.0000
  I   I240      1.0  0.08589  0.01948  0.15625  1.0000
  I   I241      1.0  0.56954  0.50553  0.58435  1.0000
  I   I242      1.0  0.21132  0.88401  0.26323  1.0000
  I   I243      1.0  0.38118  0.02809  0.93988  1.0000
  I   I244      1.0  0.82614  0.50939  0.69493  1.0000
  I   I245      1.0  0.77962  0.74348  0.09443  1.0000
  I   I246      1.0  0.44439  0.14902  0.29852  1.0000
  I   I247      1.0  0.57000  0.82360  0.09703  1.0000
  I   I248      1.0  0.16794  0.54679  0.93912  1.0000
  I   I249      1.0  0.45549  0.28091  0.14948  1.0000
  I   I250      1.0  0.66146  0.89727  0.53055  1.0000
  I   I251      1.0  0.23986  0.12731  0.76367  1.0000
  I   I252      1.0  0.85645  0.29915  0.02963  1.0000
  I   I253      1.0  0.74128  0.70647  0.53737  1.0000
  I   I254      1.0  0.09985  0.34823  0.02401  1.0000
  I   I255      1.0  0.74774  0.62413  0.47965  1.0000
  I   I256      1.0  0.93356  0.76583  0.39613  1.0000
  I   I257      1.0  0.08749  0.14511  0.72047  1.0000
  I   I258      1.0  0.25295  0.30019  0.08604  1.0000
  I   I259      1.0  0.91791  0.52033  0.38905  1.0000
  I   I260      1.0  0.06296  0.84505  0.34642  1.0000
  I   I261      1.0  0.20124  0.56035  0.01504  1.0000
  I   I262      1.0  0.08467  0.18208  0.25720  1.0000
  I   I263      1.0  0.13534  0.09382  0.41606  1.0000
  I   I264      1.0  0.80373  0.11637  0.19497  1.0000
  I   I265      1.0  0.51957  0.44377  0.25439  1.0000
  I   I266      1.0  0.55205  0.89079  0.62664  1.0000
  I   I267      1.0  0.71417  0.42518  0.27838  1.0000
  I   I268      1.0  0.26370  0.06901  0.23520  1.0000
  I   I269      1.0  0.22006  0.75983  0.02296  1.0000
  I   I270      1.0  0.22877  0.13956  0.17279  1.0000
  I   I271      1.0  0.47760  0.90936  0.51800  1.0000
  I   I272      1.0  0.36747  0.87476  0.96708  1.0000
  I   I273      1.0  0.30711  0.59606  0.15691  1.0000
  I   I274      1.0  0.81117  0.46685  0.13520  1.0000
  I   I275      1.0  0.13489  0.51390  0.49278  1.0000
  I   I276      1.0  0.84988  0.17518  0.07663  1.0000
  I   I277      1.0  0.94004  0.18819  0.33684  1.0000
  I   I278      1.0  0.58748  0.91326  0.15501  1.0000
  I   I279      1.0  0.17505  0.11827  0.59784  1.0000
  I   I280      1.0  0.76400  0.47073  0.74546  1.0000
  I   I281      1.0  0.63866  0.39793  0.95899  1.0000
  I   I282      1.0  0.01241  0.54212  0.86247  1.0000
  I   I283      1.0  0.93359  0.03698  0.01583  1.0000
  I   I284      1.0  0.96035  0.14144  0.16043  1.0000
  I   I285      1.0  0.08747  0.22971  0.57156  1.0000
  I   I286      1.0  0.30405  0.36405  0.98023  1.0000
  I   I287      1.0  0.15841  0.97121  0.81645  1.0000
  I   I288      1.0  0.06464  0.03590  0.06069  1.0000
  I   I289      1.0  0.80358  0.88152  0.49862  1.0000
  I   I290      1.0  0.88513  0.42386  0.18140  1.0000
  I   I291      1.0  0.22852  0.92181  0.21305  1.0000
  I   I292      1.0  0.73814  0.49519  0.64617  1.0000
  I   I293      1.0  0.80077  0.79429  0.07568  1.0000
  I   I294      1.0  0.63251  0.16523  0.29155  1.0000
  I   I295      1.0  0.62033  0.83397  0.14875  1.0000
  I   I296      1.0  0.10262  0.78233  0.79137  1.0000
  I   I297      1.0  0.39005  0.29220  0.09901  1.0000
  I   I298      1.0  0.37442  0.50725  0.46045  1.0000
  I   I299      1.0  0.31998  0.49641  0.04444  1.0000
  I   I300      1.0  0.89687  0.19680  0.08652  1.0000
  I   I301      1.0  0.68055  0.62742  0.49118  1.0000
  I   I302      1.0  0.68939  0.71290  0.53677  1.0000
  I   I303      1.0  0.60588  0.75302  0.69297  1.0000
  I   I304      1.0  0.24212  0.32645  0.99560  1.0000
  I   I305      1.0  0.27102  0.56481  0.99241  1.0000
  I   I306      1.0  0.71329  0.21320  0.15110  1.0000
  I   I307      1.0  0.11393  0.82092  0.27300  1.0000
  I   I308      1.0  0.31384  0.79969  0.47988  1.0000
  I   I309      1.0  0.12792  0.59640  0.99357  1.0000
  I   I310      1.0  0.93800  0.99810  0.10415  1.0000
  I   I311      1.0  0.17420  0.02681  0.42455  1.0000
  I   I312      1.0  0.14230  0.94071  0.01156  1.0000
  I   I313      1.0  0.76503  0.39196  0.27095  1.0000
  I   I314      1.0  0.57365  0.43915  0.27228  1.0000
  I   I315      1.0  0.45146  0.07019  0.11193  1.0000
  I   I316      1.0  0.24933  0.12736  0.27128  1.0000
  I   I317      1.0  0.21148  0.11041  0.22824  1.0000
  I   I318      1.0  0.20895  0.80926  0.00976  1.0000
  I   I319      1.0  0.75084  0.90560  0.08684  1.0000
  I   I320      1.0  0.03352  0.32888  0.01815  1.0000
  I   I321      1.0  0.42195  0.81657  0.97080  1.0000
  I   I322      1.0  0.76299  0.47566  0.20194  1.0000
  I   I323      1.0  0.15041  0.50273  0.37388  1.0000
  I   I324      1.0  0.77926  0.18256  0.18930  1.0000
  I   I325      1.0  0.14515  0.10610  0.74923  1.0000
  I   I326      1.0  0.73505  0.21909  0.27140  1.0000
  I   I327      1.0  0.17129  0.17498  0.58302  1.0000
  I   I328      1.0  0.55173  0.79585  0.64684  1.0000
  I   I329      1.0  0.42566  0.38463  0.28016  1.0000
  I   I330      1.0  0.93694  0.64665  0.73451  1.0000
  I   I331      1.0  0.14009  0.23948  0.56024  1.0000
  I   I332      1.0  0.34843  0.58169  0.50838  1.0000
  I   I333      1.0  0.62361  0.44087  0.87602  1.0000
  I   I334      1.0  0.03100  0.01403  0.16007  1.0000
  I   I335      1.0  0.33582  0.01858  0.92732  1.0000
  I   I336      1.0  0.94555  0.34367  0.58004  1.0000
  I   I337      1.0  0.80099  0.89236  0.61111  1.0000
  I   I338      1.0  0.88116  0.47250  0.25095  1.0000
  I   I339      1.0  0.29647  0.90998  0.13309  1.0000
  I   I340      1.0  0.07618  0.43634  0.35115  1.0000
  I   I341      1.0  0.59599  0.58280  0.27005  1.0000
  I   I342      1.0  0.63142  0.21535  0.33577  1.0000
  I   I343      1.0  0.54324  0.84937  0.19644  1.0000
  I   I344      1.0  0.15534  0.76825  0.72385  1.0000
  I   I345      1.0  0.44852  0.24149  0.07783  1.0000
  I   I346      1.0  0.92673  0.54977  0.47138  1.0000
  I   I347      1.0  0.63375  0.95934  0.49014  1.0000
  I   I348      1.0  0.94491  0.23804  0.14411  1.0000
  I   I349      1.0  0.70268  0.65699  0.57932  1.0000
  I   I350      1.0  0.67799  0.75472  0.44548  1.0000
  I   I351      1.0  0.06057  0.35244  0.09745  1.0000
  I   I352      1.0  0.20161  0.29982  0.98739  1.0000
  I   I353      1.0  0.93866  0.71856  0.35500  1.0000
  I   I354      1.0  0.71762  0.18720  0.23831  1.0000
  I   I355      1.0  0.07875  0.79634  0.29271  1.0000
  I   I356      1.0  0.01909  0.83558  0.40116  1.0000
  I   I357      1.0  0.57849  0.94005  0.68694  1.0000
  I   I358      1.0  0.86358  0.04552  0.12640  1.0000
  I   I359      1.0  0.16055  0.08664  0.30554  1.0000
  I   I360      1.0  0.15571  0.90423  0.92100  1.0000
  I   I361      1.0  0.76335  0.36372  0.19323  1.0000
  I   I362      1.0  0.54317  0.38852  0.27213  1.0000
  I   I363      1.0  0.58835  0.83484  0.65874  1.0000
  I   I364      1.0  0.30722  0.94200  0.46908  1.0000
  I   I365      1.0  0.04919  0.76542  0.71086  1.0000
  I   I366      1.0  0.26074  0.80866  0.01481  1.0000
  I   I367      1.0  0.77941  0.92951  0.15757  1.0000
  I   I368      1.0  0.04134  0.42801  0.29096  1.0000
  I   I369      1.0  0.30752  0.88878  0.94226  1.0000
  I   I370      1.0  0.77109  0.52328  0.19080  1.0000
  I   I371      1.0  0.09004  0.53007  0.32364  1.0000
  I   I372      1.0  0.75937  0.14867  0.12680  1.0000
  I   I373      1.0  0.09767  0.04380  0.75220  1.0000
  I   I374      1.0  0.58544  0.90764  0.02523  1.0000
  I   I375      1.0  0.13163  0.22742  0.65473  1.0000
  I   I376      1.0  0.81056  0.47457  0.77938  1.0000
  I   I377      1.0  0.37743  0.44101  0.31003  1.0000
  I   I378      1.0  0.02514  0.58434  0.88622  1.0000
  I   I379      1.0  0.20241  0.51302  0.34414  1.0000
  I   I380      1.0  0.45456  0.75152  0.39050  1.0000
  I   I381      1.0  0.95010  0.19005  0.08520  1.0000
  I   I382      1.0  0.03701  0.94736  0.14931  1.0000
  I   I383      1.0  0.27004  0.38277  0.08676  1.0000
  I   I384      1.0  0.11874  0.95400  0.89779  1.0000
