data_image0
_chemical_formula_structural       Ti96I384
_chemical_formula_sum              "Ti96 I384"
_cell_length_a       75.2962
_cell_length_b       75.2278
_cell_length_c       36.8433
_cell_angle_alpha    88.7757
_cell_angle_beta     88.7757
_cell_angle_gamma    62.1586

_space_group_name_H-M_alt    "P 1"
_space_group_IT_number       1

loop_
  _space_group_symop_operation_xyz
  'x, y, z'

loop_
  _atom_site_type_symbol
  _atom_site_label
  _atom_site_symmetry_multiplicity
  _atom_site_fract_x
  _atom_site_fract_y
  _atom_site_fract_z
  _atom_site_occupancy
  Ti  Ti1       1.0  0.71024  0.21749  0.85484  1.0000
  Ti  Ti2       1.0  0.46656  0.71091  0.55865  1.0000
  Ti  Ti3       1.0  0.10963  0.02530  0.34163  1.0000
  Ti  Ti4       1.0  0.14738  0.17888  0.09887  1.0000
  Ti  Ti5       1.0  0.22976  0.06372  0.94173  1.0000
  Ti  Ti6       1.0  0.41753  0.48798  0.27474  1.0000
  Ti  Ti7       1.0  0.67480  0.07602  0.02616  1.0000
  Ti  Ti8       1.0  0.31827  0.75404  0.22361  1.0000
  Ti  Ti9       1.0  0.15884  0.45158  0.60334  1.0000
  Ti  Ti10      1.0  0.55401  0.75314  0.36808  1.0000
  Ti  Ti11      1.0  0.32365  0.98008  0.77243  1.0000
  Ti  Ti12      1.0  0.00291  0.11348  0.32722  1.0000
  Ti  Ti13      1.0  0.76513  0.72362  0.47223  1.0000
  Ti  Ti14      1.0  0.16953  0.21884  0.13603  1.0000
  Ti  Ti15      1.0  0.84794  0.47235  0.72183  1.0000
  Ti  Ti16      1.0  0.25675  0.58466  0.38915  1.0000
  Ti  Ti17      1.0  0.13399  0.89240  0.61596  1.0000
  Ti  Ti18      1.0  0.35993  0.12475  0.35630  1.0000
  Ti  Ti19      1.0  0.86272  0.15807  0.82468  1.0000
  Ti  Ti20      1.0  0.13593  0.52552  0.95915  1.0000
  Ti  Ti21      1.0  0.30080  0.74377  0.14934  1.0000
  Ti  Ti22      1.0  0.74323  0.36111  0.73286  1.0000
  Ti  Ti23      1.0  0.29602  0.63739  0.86741  1.0000
  Ti  Ti24      1.0  0.74163  0.29880  0.34722  1.0000
  Ti  Ti25      1.0  0.71542  0.53804  0.35837  1.0000
  Ti  Ti26      1.0  0.95718  0.88339  0.81447  1.0000
  Ti  Ti27      1.0  0.43878  0.54553  0.06083  1.0000
  Ti  Ti28      1.0  0.49394  0.13898  0.82076  1.0000
  Ti  Ti29      1.0  0.23964  0.96862  0.19438  1.0000
  Ti  Ti30      1.0  0.25822  0.86399  0.07926  1.0000
  Ti  Ti31      1.0  0.58425  0.39068  0.18339  1.0000
  Ti  Ti32      1.0  0.55066  0.74647  0.12835  1.0000
  Ti  Ti33      1.0  0.58882  0.31746  0.64921  1.0000
  Ti  Ti34      1.0  0.85799  0.56774  0.11316  1.0000
  Ti  Ti35      1.0  0.65886  0.77249  0.12854  1.0000
  Ti  Ti36      1.0  0.30754  0.22772  0.53710  1.0000
  Ti  Ti37      1.0  0.93989  0.54066  0.71062  1.0000
  Ti  Ti38      1.0  0.21574  0.42875  0.33782  1.0000
  Ti  Ti39      1.0  0.93279  0.29656  0.77783  1.0000
  Ti  Ti40      1.0  0.60340  0.75605  0.32183  1.0000
  Ti  Ti41      1.0  0.88988  0.54963  0.35652  1.0000
  Ti  Ti42      1.0  0.85145  0.73219  0.28544  1.0000
  Ti  Ti43      1.0  0.02659  0.84976  0.56829  1.0000
  Ti  Ti44      1.0  0.86677  0.33798  0.31973  1.0000
  Ti  Ti45      1.0  0.54007  0.06420  0.20277  1.0000
  Ti  Ti46      1.0  0.77524  0.88809  0.03932  1.0000
  Ti  Ti47      1.0  0.11412  0.85708  0.82186  1.0000
  Ti  Ti48      1.0  0.98238  0.10651  0.66812  1.0000
  Ti  Ti49      1.0  0.00114  0.89424  0.51695  1.0000
  Ti  Ti50      1.0  0.08311  0.18477  0.31457  1.0000
  Ti  Ti51      1.0  0.48938  0.64752  0.56064  1.0000
  Ti  Ti52      1.0  0.51500  0.39910  0.83813  1.0000
  Ti  Ti53      1.0  0.23871  0.81722  0.70392  1.0000
  Ti  Ti54      1.0  0.40707  0.92236  0.20659  1.0000
  Ti  Ti55      1.0  0.51149  0.74372  0.14849  1.0000
  Ti  Ti56      1.0  0.65652  0.84137  0.98304  1.0000
  Ti  Ti57      1.0  0.18327  0.45370  0.66924  1.0000
  Ti  Ti58      1.0  0.35936  0.99610  0.41086  1.0000
  Ti  Ti59      1.0  0.45137  0.55827  0.60781  1.0000
  Ti  Ti60      1.0  0.97381  0.18799  0.40666  1.0000
  Ti  Ti61      1.0  0.74707  0.83392  0.73390  1.0000
  Ti  Ti62      1.0  0.73098  0.72790  0.53549  1.0000
  Ti  Ti63      1.0  0.14697  0.56760  0.94453  1.0000
  Ti  Ti64      1.0  0.40114  0.09579  0.34308  1.0000
  Ti  Ti65      1.0  0.95927  0.93495  0.28023  1.0000
  Ti  Ti66      1.0  0.35267  0.22389  0.24054  1.0000
  Ti  Ti67      1.0  0.19319  0.16982  0.30217  1.0000
  Ti  Ti68      1.0  0.49408  0.26497  0.20420  1.0000
  Ti  Ti69      1.0  0.91353  0.86577  0.84980  1.0000
  Ti  Ti70      1.0  0.19447  0.12044  0.26227  1.0000
  Ti  Ti71      1.0  0.96305  0.71621  0.11031  1.0000
  Ti  Ti72      1.0  0.13411  0.90516  0.84680  1.0000
  Ti  Ti73      1.0  0.43293  0.54927  0.96312  1.0000
  Ti  Ti74      1.0  0.74265  0.52390  0.29287  1.0000
  Ti  Ti75      1.0  0.40798  0.24320  0.98961  1.0000
  Ti  Ti76      1.0  0.40644  0.05236  0.76355  1.0000
  Ti  Ti77      1.0  0.83288  0.43666  0.73860  1.0000
  Ti  Ti78      1.0  0.22880  0.02495  0.15707  1.0000
  Ti  Ti79      1.0  0.33036  0.87147  0.61938  1.0000
  Ti  Ti80      1.0  0.40882  0.97734  0.93690  1.0000
  Ti  Ti81      1.0  0.93046  0.61776  0.96187  1.0000
  Ti  Ti82      1.0  0.74326  0.41635  0.48240  1.0000
  Ti  Ti83      1.0  0.08699  0.41672  0.58250  1.0000
  Ti  Ti84      1.0  0.36838  0.21059  0.52769  1.0000
  Ti  Ti85      1.0  0.97332  0.51051  0.75505  1.0000
  Ti  Ti86      1.0  0.71115  0.02496  0.09900  1.0000
  Ti  Ti87      1.0  0.52190  0.06679  0.10070  1.0000
  Ti  Ti88      1.0  0.45540  0.28317  0.77416  1.0000
  Ti  Ti89      1.0  0.25199  0.48264  0.10756  1.0000
  Ti  Ti90      1.0  0.97714  0.51479  0.08825  1.0000
  Ti  Ti91      1.0  0.06579  0.95349  0.28925  1.0000
  Ti  Ti92      1.0  0.65923  0.29645  0.48242  1.0000
  Ti  Ti93      1.0  0.55043  0.51621  0.50540  1.0000
  Ti  Ti94      1.0  0.99394  0.09146  0.74795  1.0000
  Ti  Ti95      1.0  0.00925  0.27526  0.41755  1.0000
  Ti  Ti96      1.0  0.79226  0.31505  0.78385  1.0000
  I   I1        1.0  0.14989  0.86430  0.86047  1.0000
  I   I2        1.0  0.43011  0.73100  0.59100  1.0000
  I   I3        1.0  0.98654  0.86665  0.54388  1.0000
  I   I4        1.0  0.23491  0.78462  0.68238  1.0000
  I   I5        1.0  0.43173  0.51597  0.28291  1.0000
  I   I6        1.0  0.41452  0.92448  0.13792  1.0000
  I   I7        1.0  0.29151  0.79186  0.23039  1.0000
  I   I8        1.0  0.68737  0.83200  0.93877  1.0000
  I   I9        1.0  0.19746  0.45243  0.60307  1.0000
  I   I10       1.0  0.54381  0.76402  0.43662  1.0000
  I   I11       1.0  0.28360  0.00157  0.78083  1.0000
  I   I12       1.0  0.26072  0.02979  0.92674  1.0000
  I   I13       1.0  0.74920  0.74995  0.53433  1.0000
  I   I14       1.0  0.13766  0.56089  0.01164  1.0000
  I   I15       1.0  0.79858  0.45506  0.76589  1.0000
  I   I16       1.0  0.58585  0.75418  0.39391  1.0000
  I   I17       1.0  0.36767  0.23402  0.29500  1.0000
  I   I18       1.0  0.36680  0.08820  0.32744  1.0000
  I   I19       1.0  0.16253  0.49067  0.98137  1.0000
  I   I20       1.0  0.35410  0.94486  0.80332  1.0000
  I   I21       1.0  0.31554  0.73374  0.28070  1.0000
  I   I22       1.0  0.26973  0.64199  0.92408  1.0000
  I   I23       1.0  0.95336  0.68824  0.08560  1.0000
  I   I24       1.0  0.18814  0.16685  0.37603  1.0000
  I   I25       1.0  0.72141  0.56132  0.40907  1.0000
  I   I26       1.0  0.40763  0.22332  0.93476  1.0000
  I   I27       1.0  0.46517  0.55885  0.07471  1.0000
  I   I28       1.0  0.53066  0.12073  0.84296  1.0000
  I   I29       1.0  0.22613  0.05859  0.17804  1.0000
  I   I30       1.0  0.23380  0.89720  0.11786  1.0000
  I   I31       1.0  0.37543  0.00783  0.91918  1.0000
  I   I32       1.0  0.96098  0.58789  0.99078  1.0000
  I   I33       1.0  0.35824  0.88126  0.64451  1.0000
  I   I34       1.0  0.69406  0.76385  0.09818  1.0000
  I   I35       1.0  0.37500  0.17643  0.51575  1.0000
  I   I36       1.0  0.84447  0.59661  0.15987  1.0000
  I   I37       1.0  0.97305  0.49107  0.68615  1.0000
  I   I38       1.0  0.93314  0.29726  0.70517  1.0000
  I   I39       1.0  0.99204  0.47311  0.77226  1.0000
  I   I40       1.0  0.87553  0.33254  0.24607  1.0000
  I   I41       1.0  0.94690  0.52840  0.12933  1.0000
  I   I42       1.0  0.60906  0.73183  0.27202  1.0000
  I   I43       1.0  0.35596  0.97700  0.46879  1.0000
  I   I44       1.0  0.86948  0.36902  0.34588  1.0000
  I   I45       1.0  0.55653  0.08877  0.21710  1.0000
  I   I46       1.0  0.97443  0.30635  0.44007  1.0000
  I   I47       1.0  0.13410  0.84432  0.75885  1.0000
  I   I48       1.0  0.97331  0.13136  0.73369  1.0000
  I   I49       1.0  0.06216  0.84561  0.56864  1.0000
  I   I50       1.0  0.46584  0.68046  0.51997  1.0000
  I   I51       1.0  0.45712  0.73172  0.49666  1.0000
  I   I52       1.0  0.41138  0.94368  0.92194  1.0000
  I   I53       1.0  0.26765  0.80494  0.64707  1.0000
  I   I54       1.0  0.44154  0.88950  0.21318  1.0000
  I   I55       1.0  0.70438  0.03366  0.01584  1.0000
  I   I56       1.0  0.28145  0.74006  0.20735  1.0000
  I   I57       1.0  0.04594  0.27814  0.40908  1.0000
  I   I58       1.0  0.63552  0.72275  0.34493  1.0000
  I   I59       1.0  0.47969  0.56534  0.63738  1.0000
  I   I60       1.0  0.98421  0.21842  0.40953  1.0000
  I   I61       1.0  0.78815  0.69559  0.42759  1.0000
  I   I62       1.0  0.72069  0.71194  0.59148  1.0000
  I   I63       1.0  0.15702  0.59728  0.96118  1.0000
  I   I64       1.0  0.22984  0.60850  0.43956  1.0000
  I   I65       1.0  0.93467  0.96999  0.25190  1.0000
  I   I66       1.0  0.37268  0.20453  0.18306  1.0000
  I   I67       1.0  0.84881  0.14818  0.88590  1.0000
  I   I68       1.0  0.10955  0.53257  0.00650  1.0000
  I   I69       1.0  0.92434  0.83593  0.89254  1.0000
  I   I70       1.0  0.16558  0.15681  0.26143  1.0000
  I   I71       1.0  0.29424  0.67207  0.84381  1.0000
  I   I72       1.0  0.10104  0.89582  0.86369  1.0000
  I   I73       1.0  0.41568  0.53451  0.03075  1.0000
  I   I74       1.0  0.97720  0.90306  0.85207  1.0000
  I   I75       1.0  0.95283  0.90562  0.75217  1.0000
  I   I76       1.0  0.84732  0.39977  0.76190  1.0000
  I   I77       1.0  0.82387  0.50212  0.67543  1.0000
  I   I78       1.0  0.70832  0.21228  0.78484  1.0000
  I   I79       1.0  0.56979  0.29793  0.63607  1.0000
  I   I80       1.0  0.61196  0.40307  0.17360  1.0000
  I   I81       1.0  0.58832  0.73278  0.13856  1.0000
  I   I82       1.0  0.75986  0.38320  0.44440  1.0000
  I   I83       1.0  0.11657  0.38313  0.56211  1.0000
  I   I84       1.0  0.39414  0.21583  0.49294  1.0000
  I   I85       1.0  0.95648  0.54667  0.77668  1.0000
  I   I86       1.0  0.34535  0.19192  0.25687  1.0000
  I   I87       1.0  0.90263  0.33310  0.78146  1.0000
  I   I88       1.0  0.51898  0.76475  0.33656  1.0000
  I   I89       1.0  0.90022  0.51548  0.38626  1.0000
  I   I90       1.0  0.98083  0.53883  0.03579  1.0000
  I   I91       1.0  0.08261  0.92245  0.32970  1.0000
  I   I92       1.0  0.66141  0.32428  0.52071  1.0000
  I   I93       1.0  0.88404  0.30385  0.35443  1.0000
  I   I94       1.0  0.02048  0.09308  0.68789  1.0000
  I   I95       1.0  0.81348  0.86272  0.03913  1.0000
  I   I96       1.0  0.79527  0.34816  0.80067  1.0000
  I   I97       1.0  0.13830  0.99872  0.39347  1.0000
  I   I98       1.0  0.68576  0.25442  0.88548  1.0000
  I   I99       1.0  0.49131  0.62102  0.51270  1.0000
  I   I100      1.0  0.16123  0.17686  0.03255  1.0000
  I   I101      1.0  0.44344  0.32007  0.76513  1.0000
  I   I102      1.0  0.20917  0.07620  0.00409  1.0000
  I   I103      1.0  0.67224  0.04983  0.09161  1.0000
  I   I104      1.0  0.54532  0.73532  0.06179  1.0000
  I   I105      1.0  0.15234  0.43572  0.67097  1.0000
  I   I106      1.0  0.01307  0.08798  0.38776  1.0000
  I   I107      1.0  0.56389  0.77057  0.30776  1.0000
  I   I108      1.0  0.03728  0.10217  0.29355  1.0000
  I   I109      1.0  0.86715  0.43593  0.76402  1.0000
  I   I110      1.0  0.79236  0.73324  0.48407  1.0000
  I   I111      1.0  0.15558  0.57193  0.86920  1.0000
  I   I112      1.0  0.39802  0.08720  0.27313  1.0000
  I   I113      1.0  0.97401  0.93968  0.34048  1.0000
  I   I114      1.0  0.16818  0.86406  0.59822  1.0000
  I   I115      1.0  0.20656  0.19381  0.28797  1.0000
  I   I116      1.0  0.22256  0.13401  0.25362  1.0000
  I   I117      1.0  0.45402  0.27867  0.19791  1.0000
  I   I118      1.0  0.71803  0.37080  0.78576  1.0000
  I   I119      1.0  0.18425  0.11762  0.33106  1.0000
  I   I120      1.0  0.10018  0.94287  0.85992  1.0000
  I   I121      1.0  0.45235  0.55277  0.89832  1.0000
  I   I122      1.0  0.68610  0.56585  0.32111  1.0000
  I   I123      1.0  0.42958  0.26078  0.96898  1.0000
  I   I124      1.0  0.27141  0.88378  0.03448  1.0000
  I   I125      1.0  0.41735  0.08014  0.76972  1.0000
  I   I126      1.0  0.19110  0.02766  0.16261  1.0000
  I   I127      1.0  0.58792  0.35123  0.62500  1.0000
  I   I128      1.0  0.14174  0.20723  0.17609  1.0000
  I   I129      1.0  0.90080  0.64305  0.99831  1.0000
  I   I130      1.0  0.34195  0.22225  0.58415  1.0000
  I   I131      1.0  0.73614  0.44066  0.41816  1.0000
  I   I132      1.0  0.66640  0.74047  0.16544  1.0000
  I   I133      1.0  0.96947  0.28287  0.79832  1.0000
  I   I134      1.0  0.18038  0.43869  0.34998  1.0000
  I   I135      1.0  0.32056  0.25507  0.21977  1.0000
  I   I136      1.0  0.85572  0.76030  0.31543  1.0000
  I   I137      1.0  0.48530  0.39229  0.85681  1.0000
  I   I138      1.0  0.25662  0.50877  0.13933  1.0000
  I   I139      1.0  0.03606  0.94999  0.27342  1.0000
  I   I140      1.0  0.69558  0.26554  0.46003  1.0000
  I   I141      1.0  0.55320  0.48284  0.54561  1.0000
  I   I142      1.0  0.97581  0.08664  0.80089  1.0000
  I   I143      1.0  0.10495  0.99009  0.32875  1.0000
  I   I144      1.0  0.78670  0.33433  0.71551  1.0000
  I   I145      1.0  0.74210  0.21947  0.86878  1.0000
  I   I146      1.0  0.47820  0.73298  0.59777  1.0000
  I   I147      1.0  0.13594  0.03747  0.35859  1.0000
  I   I148      1.0  0.52003  0.40660  0.90355  1.0000
  I   I149      1.0  0.20596  0.06085  0.89216  1.0000
  I   I150      1.0  0.38248  0.50079  0.24315  1.0000
  I   I151      1.0  0.54982  0.77849  0.09004  1.0000
  I   I152      1.0  0.34955  0.75928  0.22664  1.0000
  I   I153      1.0  0.15650  0.48629  0.63098  1.0000
  I   I154      1.0  0.01771  0.89343  0.58061  1.0000
  I   I155      1.0  0.33959  0.00277  0.76109  1.0000
  I   I156      1.0  0.00568  0.16419  0.36369  1.0000
  I   I157      1.0  0.84594  0.45004  0.66817  1.0000
  I   I158      1.0  0.11051  0.59788  0.92876  1.0000
  I   I159      1.0  0.75758  0.85242  0.68618  1.0000
  I   I160      1.0  0.42608  0.05584  0.35199  1.0000
  I   I161      1.0  0.10143  0.89171  0.59902  1.0000
  I   I162      1.0  0.37865  0.10442  0.41430  1.0000
  I   I163      1.0  0.89830  0.14829  0.83755  1.0000
  I   I164      1.0  0.50759  0.23861  0.25740  1.0000
  I   I165      1.0  0.26796  0.77874  0.12254  1.0000
  I   I166      1.0  0.82123  0.28506  0.75390  1.0000
  I   I167      1.0  0.29340  0.63123  0.79945  1.0000
  I   I168      1.0  0.75341  0.28276  0.41273  1.0000
  I   I169      1.0  0.71089  0.50661  0.31734  1.0000
  I   I170      1.0  0.72538  0.53195  0.23217  1.0000
  I   I171      1.0  0.44995  0.52068  0.12164  1.0000
  I   I172      1.0  0.43004  0.01624  0.78395  1.0000
  I   I173      1.0  0.22457  0.03002  0.08559  1.0000
  I   I174      1.0  0.29445  0.84245  0.10731  1.0000
  I   I175      1.0  0.55125  0.42424  0.20524  1.0000
  I   I176      1.0  0.54741  0.71747  0.17980  1.0000
  I   I177      1.0  0.33055  0.84967  0.56864  1.0000
  I   I178      1.0  0.75287  0.39433  0.54493  1.0000
  I   I179      1.0  0.10584  0.43938  0.60157  1.0000
  I   I180      1.0  0.33063  0.23497  0.48720  1.0000
  I   I181      1.0  0.98856  0.52666  0.70179  1.0000
  I   I182      1.0  0.68826  0.10158  0.04749  1.0000
  I   I183      1.0  0.50252  0.04451  0.07946  1.0000
  I   I184      1.0  0.46507  0.27120  0.70387  1.0000
  I   I185      1.0  0.26403  0.45547  0.15878  1.0000
  I   I186      1.0  0.87703  0.70026  0.31355  1.0000
  I   I187      1.0  0.63746  0.28550  0.52219  1.0000
  I   I188      1.0  0.83049  0.34308  0.31985  1.0000
  I   I189      1.0  0.51333  0.09425  0.15307  1.0000
  I   I190      1.0  0.79073  0.91195  0.01581  1.0000
  I   I191      1.0  0.06800  0.22057  0.34456  1.0000
  I   I192      1.0  0.08805  0.04642  0.28566  1.0000
  I   I193      1.0  0.26839  0.93111  0.17074  1.0000
  I   I194      1.0  0.06765  0.16589  0.35212  1.0000
  I   I195      1.0  0.07334  0.05061  0.38172  1.0000
  I   I196      1.0  0.10875  0.19082  0.10094  1.0000
  I   I197      1.0  0.36996  0.97123  0.35770  1.0000
  I   I198      1.0  0.45162  0.45831  0.24692  1.0000
  I   I199      1.0  0.52076  0.78158  0.15410  1.0000
  I   I200      1.0  0.64702  0.87768  0.99562  1.0000
  I   I201      1.0  0.12955  0.47911  0.56140  1.0000
  I   I202      1.0  0.41607  0.58403  0.62308  1.0000
  I   I203      1.0  0.95015  0.87043  0.88404  1.0000
  I   I204      1.0  0.98721  0.10291  0.27315  1.0000
  I   I205      1.0  0.73857  0.74541  0.41814  1.0000
  I   I206      1.0  0.16628  0.25244  0.11111  1.0000
  I   I207      1.0  0.81028  0.42726  0.68268  1.0000
  I   I208      1.0  0.26499  0.61151  0.36432  1.0000
  I   I209      1.0  0.13608  0.92193  0.56881  1.0000
  I   I210      1.0  0.29333  0.90028  0.64255  1.0000
  I   I211      1.0  0.17528  0.10115  0.23962  1.0000
  I   I212      1.0  0.12601  0.50612  0.91348  1.0000
  I   I213      1.0  0.87751  0.89264  0.86675  1.0000
  I   I214      1.0  0.72965  0.35931  0.67097  1.0000
  I   I215      1.0  0.33131  0.62586  0.90373  1.0000
  I   I216      1.0  0.54063  0.51592  0.44163  1.0000
  I   I217      1.0  0.70211  0.52534  0.41158  1.0000
  I   I218      1.0  0.40985  0.22261  0.04983  1.0000
  I   I219      1.0  0.40655  0.58827  0.95170  1.0000
  I   I220      1.0  0.87801  0.47955  0.71902  1.0000
  I   I221      1.0  0.22487  0.00697  0.22128  1.0000
  I   I222      1.0  0.38024  0.06310  0.81086  1.0000
  I   I223      1.0  0.56758  0.39536  0.12070  1.0000
  I   I224      1.0  0.47970  0.75482  0.10673  1.0000
  I   I225      1.0  0.59301  0.31301  0.72046  1.0000
  I   I226      1.0  0.70397  0.41910  0.48986  1.0000
  I   I227      1.0  0.61857  0.79015  0.11375  1.0000
  I   I228      1.0  0.31351  0.19164  0.56059  1.0000
  I   I229      1.0  0.13780  0.89389  0.68809  1.0000
  I   I230      1.0  0.23154  0.41202  0.40389  1.0000
  I   I231      1.0  0.92094  0.26977  0.78616  1.0000
  I   I232      1.0  0.18411  0.22772  0.19400  1.0000
  I   I233      1.0  0.85494  0.56849  0.32479  1.0000
  I   I234      1.0  0.00951  0.49469  0.12118  1.0000
  I   I235      1.0  0.03064  0.89464  0.46332  1.0000
  I   I236      1.0  0.58955  0.50544  0.49876  1.0000
  I   I237      1.0  0.09170  0.95206  0.24073  1.0000
  I   I238      1.0  0.01083  0.29626  0.36010  1.0000
  I   I239      1.0  0.75370  0.32084  0.75952  1.0000
  I   I240      1.0  0.98090  0.12778  0.60528  1.0000
  I   I241      1.0  0.69643  0.19423  0.89908  1.0000
  I   I242      1.0  0.48881  0.67803  0.61952  1.0000
  I   I243      1.0  0.75796  0.86592  0.01959  1.0000
  I   I244      1.0  0.42361  0.28379  0.80160  1.0000
  I   I245      1.0  0.20567  0.84658  0.68414  1.0000
  I   I246      1.0  0.41454  0.47515  0.33565  1.0000
  I   I247      1.0  0.71992  0.98621  0.10910  1.0000
  I   I248      1.0  0.30414  0.72363  0.09378  1.0000
  I   I249      1.0  0.16885  0.41572  0.57267  1.0000
  I   I250      1.0  0.44720  0.55712  0.53885  1.0000
  I   I251      1.0  0.33454  0.96144  0.70826  1.0000
  I   I252      1.0  0.93562  0.21430  0.39766  1.0000
  I   I253      1.0  0.76539  0.69444  0.52098  1.0000
  I   I254      1.0  0.19144  0.18690  0.10832  1.0000
  I   I255      1.0  0.76954  0.79983  0.77113  1.0000
  I   I256      1.0  0.99670  0.92562  0.24801  1.0000
  I   I257      1.0  0.94134  0.56780  0.65469  1.0000
  I   I258      1.0  0.32227  0.13359  0.38081  1.0000
  I   I259      1.0  0.15708  0.20677  0.30942  1.0000
  I   I260      1.0  0.50640  0.29269  0.21344  1.0000
  I   I261      1.0  0.31882  0.76771  0.14849  1.0000
  I   I262      1.0  0.75293  0.39095  0.72293  1.0000
  I   I263      1.0  0.96191  0.73881  0.04988  1.0000
  I   I264      1.0  0.28142  0.22094  0.49212  1.0000
  I   I265      1.0  0.75519  0.50715  0.36110  1.0000
  I   I266      1.0  0.91514  0.89755  0.81346  1.0000
  I   I267      1.0  0.46887  0.52200  0.00059  1.0000
  I   I268      1.0  0.48956  0.13257  0.75245  1.0000
  I   I269      1.0  0.26342  0.98378  0.15859  1.0000
  I   I270      1.0  0.47646  0.14055  0.88345  1.0000
  I   I271      1.0  0.55958  0.37437  0.20176  1.0000
  I   I272      1.0  0.94020  0.64228  0.93350  1.0000
  I   I273      1.0  0.62705  0.29964  0.63183  1.0000
  I   I274      1.0  0.83240  0.56537  0.06876  1.0000
  I   I275      1.0  0.65595  0.79877  0.17506  1.0000
  I   I276      1.0  0.39075  0.20709  0.58900  1.0000
  I   I277      1.0  0.74459  0.44289  0.51911  1.0000
  I   I278      1.0  0.23617  0.45129  0.32608  1.0000
  I   I279      1.0  0.51517  0.07047  0.26261  1.0000
  I   I280      1.0  0.54498  0.36599  0.81190  1.0000
  I   I281      1.0  0.91698  0.53716  0.30958  1.0000
  I   I282      1.0  0.86665  0.73557  0.22116  1.0000
  I   I283      1.0  0.00681  0.85464  0.63128  1.0000
  I   I284      1.0  0.74103  0.26841  0.31352  1.0000
  I   I285      1.0  0.52540  0.08855  0.05401  1.0000
  I   I286      1.0  0.98173  0.26478  0.40896  1.0000
  I   I287      1.0  0.07830  0.86483  0.79129  1.0000
  I   I288      1.0  0.94172  0.12400  0.67052  1.0000
  I   I289      1.0  0.02087  0.85521  0.48597  1.0000
  I   I290      1.0  0.07880  0.17930  0.25046  1.0000
  I   I291      1.0  0.46418  0.64601  0.61927  1.0000
  I   I292      1.0  0.51273  0.42854  0.79971  1.0000
  I   I293      1.0  0.23610  0.81717  0.77655  1.0000
  I   I294      1.0  0.37383  0.91768  0.22035  1.0000
  I   I295      1.0  0.69075  0.07823  0.95902  1.0000
  I   I296      1.0  0.63763  0.82922  0.94024  1.0000
  I   I297      1.0  0.21011  0.41547  0.67148  1.0000
  I   I298      1.0  0.39529  0.99184  0.42485  1.0000
  I   I299      1.0  0.28514  0.55017  0.40914  1.0000
  I   I300      1.0  0.54604  0.54912  0.54665  1.0000
  I   I301      1.0  0.71704  0.82524  0.72410  1.0000
  I   I302      1.0  0.72059  0.71033  0.48577  1.0000
  I   I303      1.0  0.56725  0.71529  0.33622  1.0000
  I   I304      1.0  0.34039  0.14389  0.29194  1.0000
  I   I305      1.0  0.23089  0.59320  0.33022  1.0000
  I   I306      1.0  0.63908  0.08196  0.00895  1.0000
  I   I307      1.0  0.85377  0.14139  0.77124  1.0000
  I   I308      1.0  0.16183  0.53050  0.90796  1.0000
  I   I309      1.0  0.34148  0.71437  0.19010  1.0000
  I   I310      1.0  0.03438  0.81354  0.55313  1.0000
  I   I311      1.0  0.93292  0.74216  0.15449  1.0000
  I   I312      1.0  0.15875  0.91600  0.87060  1.0000
  I   I313      1.0  0.41819  0.53487  0.91805  1.0000
  I   I314      1.0  0.74559  0.55704  0.30107  1.0000
  I   I315      1.0  0.36922  0.26759  0.99087  1.0000
  I   I316      1.0  0.40088  0.05043  0.69066  1.0000
  I   I317      1.0  0.48508  0.17587  0.82317  1.0000
  I   I318      1.0  0.22102  0.96904  0.13145  1.0000
  I   I319      1.0  0.34259  0.84303  0.67832  1.0000
  I   I320      1.0  0.13888  0.22079  0.08108  1.0000
  I   I321      1.0  0.51697  0.71034  0.10856  1.0000
  I   I322      1.0  0.88401  0.53435  0.13610  1.0000
  I   I323      1.0  0.07157  0.40669  0.64224  1.0000
  I   I324      1.0  0.27585  0.26141  0.56015  1.0000
  I   I325      1.0  0.93520  0.51479  0.75072  1.0000
  I   I326      1.0  0.71799  0.02850  0.17126  1.0000
  I   I327      1.0  0.57256  0.02989  0.23489  1.0000
  I   I328      1.0  0.60077  0.79092  0.31043  1.0000
  I   I329      1.0  0.27887  0.47066  0.05665  1.0000
  I   I330      1.0  0.97724  0.48514  0.04943  1.0000
  I   I331      1.0  0.56230  0.04286  0.09631  1.0000
  I   I332      1.0  0.32376  0.01999  0.38752  1.0000
  I   I333      1.0  0.89518  0.57179  0.40980  1.0000
  I   I334      1.0  0.02436  0.07847  0.79072  1.0000
  I   I335      1.0  0.74896  0.90428  0.09399  1.0000
  I   I336      1.0  0.78502  0.30226  0.84974  1.0000
  I   I337      1.0  0.97999  0.93503  0.50975  1.0000
  I   I338      1.0  0.11886  0.15870  0.33444  1.0000
  I   I339      1.0  0.52073  0.62051  0.59416  1.0000
  I   I340      1.0  0.43527  0.97938  0.89087  1.0000
  I   I341      1.0  0.24142  0.08845  0.91676  1.0000
  I   I342      1.0  0.39004  0.95909  0.24338  1.0000
  I   I343      1.0  0.49005  0.77144  0.19907  1.0000
  I   I344      1.0  0.67271  0.82246  0.03862  1.0000
  I   I345      1.0  0.19606  0.46925  0.72429  1.0000
  I   I346      1.0  0.22962  0.08583  0.27514  1.0000
  I   I347      1.0  0.46267  0.52096  0.61612  1.0000
  I   I348      1.0  0.98570  0.17272  0.46967  1.0000
  I   I349      1.0  0.71528  0.86200  0.77832  1.0000
  I   I350      1.0  0.69659  0.75608  0.56853  1.0000
  I   I351      1.0  0.16003  0.13888  0.12134  1.0000
  I   I352      1.0  0.38572  0.14213  0.34744  1.0000
  I   I353      1.0  0.95055  0.90625  0.28765  1.0000
  I   I354      1.0  0.74833  0.02664  0.09898  1.0000
  I   I355      1.0  0.84193  0.19649  0.80624  1.0000
  I   I356      1.0  0.50733  0.24284  0.14582  1.0000
  I   I357      1.0  0.99195  0.85071  0.80153  1.0000
  I   I358      1.0  0.70275  0.31750  0.33391  1.0000
  I   I359      1.0  0.00230  0.69620  0.11475  1.0000
  I   I360      1.0  0.13751  0.91701  0.78436  1.0000
  I   I361      1.0  0.40466  0.57960  0.07715  1.0000
  I   I362      1.0  0.77295  0.49164  0.26563  1.0000
  I   I363      1.0  0.91157  0.84502  0.79808  1.0000
  I   I364      1.0  0.23901  0.84478  0.06790  1.0000
  I   I365      1.0  0.83039  0.49259  0.78079  1.0000
  I   I366      1.0  0.22581  0.95831  0.25052  1.0000
  I   I367      1.0  0.32268  0.90467  0.56689  1.0000
  I   I368      1.0  0.41855  0.97386  0.00313  1.0000
  I   I369      1.0  0.91974  0.59943  0.91040  1.0000
  I   I370      1.0  0.87640  0.58022  0.06908  1.0000
  I   I371      1.0  0.06156  0.42780  0.52494  1.0000
  I   I372      1.0  0.76097  0.32044  0.36440  1.0000
  I   I373      1.0  0.90586  0.57542  0.71589  1.0000
  I   I374      1.0  0.23617  0.40532  0.28879  1.0000
  I   I375      1.0  0.51104  0.05431  0.17364  1.0000
  I   I376      1.0  0.48641  0.27448  0.81321  1.0000
  I   I377      1.0  0.22248  0.48382  0.07471  1.0000
  I   I378      1.0  0.81465  0.73380  0.28330  1.0000
  I   I379      1.0  0.04635  0.99187  0.31411  1.0000
  I   I380      1.0  0.63387  0.31801  0.42885  1.0000
  I   I381      1.0  0.97053  0.14553  0.34941  1.0000
  I   I382      1.0  0.98835  0.06944  0.68298  1.0000
  I   I383      1.0  0.01684  0.26306  0.48548  1.0000
  I   I384      1.0  0.11985  0.82860  0.86826  1.0000
