data_image0
_chemical_formula_structural       Ti96I384
_chemical_formula_sum              "Ti96 I384"
_cell_length_a       63.3665
_cell_length_b       63.158
_cell_length_c       30.8367
_cell_angle_alpha    88.7757
_cell_angle_beta     88.7757
_cell_angle_gamma    62.1586

_space_group_name_H-M_alt    "P 1"
_space_group_IT_number       1

loop_
  _space_group_symop_operation_xyz
  'x, y, z'

loop_
  _atom_site_type_symbol
  _atom_site_label
  _atom_site_symmetry_multiplicity
  _atom_site_fract_x
  _atom_site_fract_y
  _atom_site_fract_z
  _atom_site_occupancy
  Ti  Ti1       1.0  0.56584  0.92735  0.56005  1.0000
  Ti  Ti2       1.0  0.50635  0.12389  0.35500  1.0000
  Ti  Ti3       1.0  0.94341  0.55304  0.01360  1.0000
  Ti  Ti4       1.0  0.69047  0.29722  0.07772  1.0000
  Ti  Ti5       1.0  0.23809  0.81742  0.94846  1.0000
  Ti  Ti6       1.0  0.23615  0.21558  0.38481  1.0000
  Ti  Ti7       1.0  0.05836  0.85267  0.94984  1.0000
  Ti  Ti8       1.0  0.34840  0.49269  0.07100  1.0000
  Ti  Ti9       1.0  0.30068  0.91453  0.84146  1.0000
  Ti  Ti10      1.0  0.81538  0.73220  0.17929  1.0000
  Ti  Ti11      1.0  0.38551  0.41834  0.76116  1.0000
  Ti  Ti12      1.0  0.23952  0.61234  0.47113  1.0000
  Ti  Ti13      1.0  0.24271  0.43864  0.24047  1.0000
  Ti  Ti14      1.0  0.10107  0.98505  0.83343  1.0000
  Ti  Ti15      1.0  0.43171  0.95426  0.19476  1.0000
  Ti  Ti16      1.0  0.68715  0.79775  0.55803  1.0000
  Ti  Ti17      1.0  0.24012  0.25092  0.13487  1.0000
  Ti  Ti18      1.0  0.91082  0.64456  0.72359  1.0000
  Ti  Ti19      1.0  0.86171  0.84864  0.45454  1.0000
  Ti  Ti20      1.0  0.23104  0.03695  0.23851  1.0000
  Ti  Ti21      1.0  0.90476  0.16303  0.27565  1.0000
  Ti  Ti22      1.0  0.58881  0.54365  0.96208  1.0000
  Ti  Ti23      1.0  0.75848  0.87593  0.90301  1.0000
  Ti  Ti24      1.0  0.20648  0.70333  0.71844  1.0000
  Ti  Ti25      1.0  0.07294  0.41148  0.63852  1.0000
  Ti  Ti26      1.0  0.03443  0.13312  0.21948  1.0000
  Ti  Ti27      1.0  0.11866  0.67636  0.00762  1.0000
  Ti  Ti28      1.0  0.56874  0.48737  0.33103  1.0000
  Ti  Ti29      1.0  0.09405  0.93960  0.14699  1.0000
  Ti  Ti30      1.0  0.86102  0.46609  0.17966  1.0000
  Ti  Ti31      1.0  0.78317  0.39647  0.64578  1.0000
  Ti  Ti32      1.0  0.69617  0.06654  0.21362  1.0000
  Ti  Ti33      1.0  0.35532  0.92270  0.44446  1.0000
  Ti  Ti34      1.0  0.64696  0.66494  0.91595  1.0000
  Ti  Ti35      1.0  0.84581  0.47105  0.86657  1.0000
  Ti  Ti36      1.0  0.01258  0.50352  0.43813  1.0000
  Ti  Ti37      1.0  0.11089  0.20243  0.40265  1.0000
  Ti  Ti38      1.0  0.39707  0.37051  0.49341  1.0000
  Ti  Ti39      1.0  0.59137  0.26984  0.23729  1.0000
  Ti  Ti40      1.0  0.65266  0.76340  0.25899  1.0000
  Ti  Ti41      1.0  0.57262  0.72982  0.44434  1.0000
  Ti  Ti42      1.0  0.65030  0.09722  0.73202  1.0000
  Ti  Ti43      1.0  0.46628  0.09530  0.09935  1.0000
  Ti  Ti44      1.0  0.77154  0.62929  0.00213  1.0000
  Ti  Ti45      1.0  0.38283  0.67446  0.91719  1.0000
  Ti  Ti46      1.0  0.19422  0.30131  0.92143  1.0000
  Ti  Ti47      1.0  0.03368  0.17976  0.87811  1.0000
  Ti  Ti48      1.0  0.43005  0.59631  0.53205  1.0000
  Ti  Ti49      1.0  0.53894  0.88600  0.47868  1.0000
  Ti  Ti50      1.0  0.33726  0.00601  0.60344  1.0000
  Ti  Ti51      1.0  0.53017  0.12930  0.28159  1.0000
  Ti  Ti52      1.0  0.73075  0.33565  0.03873  1.0000
  Ti  Ti53      1.0  0.23429  0.71608  0.12715  1.0000
  Ti  Ti54      1.0  0.23468  0.16047  0.42743  1.0000
  Ti  Ti55      1.0  0.99931  0.85792  0.93204  1.0000
  Ti  Ti56      1.0  0.36765  0.52329  0.15776  1.0000
  Ti  Ti57      1.0  0.34292  0.92538  0.85880  1.0000
  Ti  Ti58      1.0  0.47460  0.07324  0.98331  1.0000
  Ti  Ti59      1.0  0.85930  0.69573  0.30181  1.0000
  Ti  Ti60      1.0  0.27762  0.56393  0.52777  1.0000
  Ti  Ti61      1.0  0.47135  0.97095  0.23744  1.0000
  Ti  Ti62      1.0  0.25394  0.38850  0.34409  1.0000
  Ti  Ti63      1.0  0.14432  0.94030  0.71404  1.0000
  Ti  Ti64      1.0  0.93810  0.65866  0.61273  1.0000
  Ti  Ti65      1.0  0.05930  0.56855  0.83122  1.0000
  Ti  Ti66      1.0  0.40428  0.48534  0.42995  1.0000
  Ti  Ti67      1.0  0.88416  0.89289  0.49717  1.0000
  Ti  Ti68      1.0  0.21966  0.04818  0.65432  1.0000
  Ti  Ti69      1.0  0.86564  0.20575  0.21370  1.0000
  Ti  Ti70      1.0  0.62531  0.54869  0.06502  1.0000
  Ti  Ti71      1.0  0.75380  0.89598  0.01573  1.0000
  Ti  Ti72      1.0  0.88825  0.03168  0.13776  1.0000
  Ti  Ti73      1.0  0.14882  0.60541  0.96156  1.0000
  Ti  Ti74      1.0  0.14672  0.40876  0.62709  1.0000
  Ti  Ti75      1.0  0.09303  0.08080  0.28129  1.0000
  Ti  Ti76      1.0  0.88833  0.39503  0.14017  1.0000
  Ti  Ti77      1.0  0.52648  0.48749  0.36320  1.0000
  Ti  Ti78      1.0  0.05557  0.98081  0.23240  1.0000
  Ti  Ti79      1.0  0.26995  0.94581  0.49997  1.0000
  Ti  Ti80      1.0  0.83290  0.41412  0.57504  1.0000
  Ti  Ti81      1.0  0.63697  0.11192  0.11030  1.0000
  Ti  Ti82      1.0  0.62007  0.67693  0.83975  1.0000
  Ti  Ti83      1.0  0.86697  0.50942  0.88862  1.0000
  Ti  Ti84      1.0  0.97818  0.55633  0.33095  1.0000
  Ti  Ti85      1.0  0.10386  0.28173  0.43710  1.0000
  Ti  Ti86      1.0  0.38971  0.43692  0.47078  1.0000
  Ti  Ti87      1.0  0.55671  0.33497  0.19878  1.0000
  Ti  Ti88      1.0  0.67761  0.71895  0.37447  1.0000
  Ti  Ti89      1.0  0.55138  0.75221  0.55600  1.0000
  Ti  Ti90      1.0  0.71179  0.06681  0.78440  1.0000
  Ti  Ti91      1.0  0.40842  0.70959  0.86511  1.0000
  Ti  Ti92      1.0  0.86896  0.13595  0.57561  1.0000
  Ti  Ti93      1.0  0.75647  0.63161  0.12205  1.0000
  Ti  Ti94      1.0  0.44416  0.56301  0.62756  1.0000
  Ti  Ti95      1.0  0.13328  0.31006  0.98230  1.0000
  Ti  Ti96      1.0  0.06545  0.12356  0.94025  1.0000
  I   I1        1.0  0.07528  0.14330  0.85932  1.0000
  I   I2        1.0  0.52479  0.09205  0.28658  1.0000
  I   I3        1.0  0.52061  0.93204  0.52441  1.0000
  I   I4        1.0  0.19917  0.75410  0.15765  1.0000
  I   I5        1.0  0.20253  0.24944  0.34002  1.0000
  I   I6        1.0  0.27272  0.15290  0.46532  1.0000
  I   I7        1.0  0.35367  0.56770  0.12825  1.0000
  I   I8        1.0  0.32320  0.53006  0.12475  1.0000
  I   I9        1.0  0.38181  0.88691  0.85721  1.0000
  I   I10       1.0  0.83095  0.74053  0.26573  1.0000
  I   I11       1.0  0.40035  0.44263  0.81016  1.0000
  I   I12       1.0  0.22966  0.85505  0.90366  1.0000
  I   I13       1.0  0.24321  0.43710  0.34051  1.0000
  I   I14       1.0  0.18301  0.94574  0.71337  1.0000
  I   I15       1.0  0.42117  0.93530  0.12409  1.0000
  I   I16       1.0  0.67205  0.84111  0.52974  1.0000
  I   I17       1.0  0.43634  0.49458  0.45359  1.0000
  I   I18       1.0  0.92214  0.70385  0.59661  1.0000
  I   I19       1.0  0.25372  0.05307  0.19096  1.0000
  I   I20       1.0  0.34139  0.43909  0.78102  1.0000
  I   I21       1.0  0.89632  0.21318  0.26427  1.0000
  I   I22       1.0  0.75158  0.85419  0.97170  1.0000
  I   I23       1.0  0.79533  0.87579  0.95158  1.0000
  I   I24       1.0  0.57724  0.56608  0.04481  1.0000
  I   I25       1.0  0.12773  0.45372  0.64179  1.0000
  I   I26       1.0  0.10701  0.07444  0.19982  1.0000
  I   I27       1.0  0.12891  0.70697  0.96130  1.0000
  I   I28       1.0  0.51834  0.46542  0.43572  1.0000
  I   I29       1.0  0.06266  0.98969  0.14468  1.0000
  I   I30       1.0  0.92099  0.37086  0.07795  1.0000
  I   I31       1.0  0.81493  0.44811  0.51993  1.0000
  I   I32       1.0  0.66114  0.12594  0.05377  1.0000
  I   I33       1.0  0.28976  0.89817  0.47197  1.0000
  I   I34       1.0  0.84282  0.47078  0.95326  1.0000
  I   I35       1.0  0.94034  0.55072  0.35631  1.0000
  I   I36       1.0  0.65203  0.70437  0.90623  1.0000
  I   I37       1.0  0.10416  0.16868  0.44490  1.0000
  I   I38       1.0  0.54422  0.30801  0.25074  1.0000
  I   I39       1.0  0.09693  0.26695  0.36153  1.0000
  I   I40       1.0  0.54689  0.79386  0.58193  1.0000
  I   I41       1.0  0.72753  0.07234  0.85639  1.0000
  I   I42       1.0  0.61708  0.79856  0.20947  1.0000
  I   I43       1.0  0.43079  0.11351  0.02656  1.0000
  I   I44       1.0  0.75555  0.59279  0.11789  1.0000
  I   I45       1.0  0.39151  0.73780  0.79580  1.0000
  I   I46       1.0  0.23126  0.31155  0.93658  1.0000
  I   I47       1.0  0.04890  0.11713  0.01902  1.0000
  I   I48       1.0  0.39188  0.63993  0.51813  1.0000
  I   I49       1.0  0.56450  0.86066  0.41172  1.0000
  I   I50       1.0  0.46076  0.14951  0.32170  1.0000
  I   I51       1.0  0.50895  0.08451  0.39372  1.0000
  I   I52       1.0  0.71904  0.24989  0.08558  1.0000
  I   I53       1.0  0.25737  0.73161  0.07315  1.0000
  I   I54       1.0  0.25814  0.16624  0.34806  1.0000
  I   I55       1.0  0.05811  0.81819  0.91005  1.0000
  I   I56       1.0  0.34774  0.52734  0.24112  1.0000
  I   I57       1.0  0.32887  0.87383  0.87885  1.0000
  I   I58       1.0  0.81240  0.71708  0.10827  1.0000
  I   I59       1.0  0.82033  0.76807  0.13808  1.0000
  I   I60       1.0  0.23209  0.57423  0.48268  1.0000
  I   I61       1.0  0.29743  0.37553  0.36244  1.0000
  I   I62       1.0  0.23166  0.39506  0.41618  1.0000
  I   I63       1.0  0.10750  0.96754  0.91179  1.0000
  I   I64       1.0  0.66198  0.77974  0.52653  1.0000
  I   I65       1.0  0.06392  0.59245  0.89581  1.0000
  I   I66       1.0  0.37350  0.52715  0.45745  1.0000
  I   I67       1.0  0.86267  0.93692  0.52576  1.0000
  I   I68       1.0  0.19318  0.07839  0.27295  1.0000
  I   I69       1.0  0.87255  0.17697  0.34608  1.0000
  I   I70       1.0  0.62392  0.52779  0.13233  1.0000
  I   I71       1.0  0.72662  0.87060  0.86072  1.0000
  I   I72       1.0  0.84680  0.04062  0.12139  1.0000
  I   I73       1.0  0.07316  0.70550  0.00930  1.0000
  I   I74       1.0  0.00113  0.17485  0.24850  1.0000
  I   I75       1.0  0.13466  0.06528  0.32064  1.0000
  I   I76       1.0  0.57339  0.44483  0.35917  1.0000
  I   I77       1.0  0.51800  0.46341  0.30552  1.0000
  I   I78       1.0  0.12762  0.94421  0.10941  1.0000
  I   I79       1.0  0.36250  0.87937  0.44254  1.0000
  I   I80       1.0  0.82637  0.39343  0.66696  1.0000
  I   I81       1.0  0.73050  0.07614  0.19587  1.0000
  I   I82       1.0  0.64673  0.65863  0.00096  1.0000
  I   I83       1.0  0.84574  0.54585  0.82849  1.0000
  I   I84       1.0  0.99402  0.51041  0.51246  1.0000
  I   I85       1.0  0.15496  0.17962  0.41292  1.0000
  I   I86       1.0  0.37377  0.42290  0.53946  1.0000
  I   I87       1.0  0.61017  0.28123  0.29758  1.0000
  I   I88       1.0  0.69742  0.73624  0.30726  1.0000
  I   I89       1.0  0.60041  0.73537  0.52897  1.0000
  I   I90       1.0  0.68650  0.11635  0.76248  1.0000
  I   I91       1.0  0.36599  0.69583  0.84076  1.0000
  I   I92       1.0  0.83520  0.13902  0.62699  1.0000
  I   I93       1.0  0.76993  0.60109  0.93554  1.0000
  I   I94       1.0  0.41374  0.56472  0.54414  1.0000
  I   I95       1.0  0.09660  0.34562  0.94748  1.0000
  I   I96       1.0  0.09815  0.12609  0.97967  1.0000
  I   I97       1.0  0.96649  0.57532  0.03645  1.0000
  I   I98       1.0  0.57974  0.88317  0.51969  1.0000
  I   I99       1.0  0.55784  0.11330  0.35290  1.0000
  I   I100      1.0  0.77785  0.31354  0.03066  1.0000
  I   I101      1.0  0.66979  0.29139  0.15231  1.0000
  I   I102      1.0  0.27966  0.78141  0.94747  1.0000
  I   I103      1.0  0.10224  0.82361  0.98785  1.0000
  I   I104      1.0  0.95570  0.89046  0.94058  1.0000
  I   I105      1.0  0.33018  0.92234  0.94037  1.0000
  I   I106      1.0  0.29621  0.51963  0.50241  1.0000
  I   I107      1.0  0.89438  0.69941  0.32618  1.0000
  I   I108      1.0  0.23433  0.62311  0.56131  1.0000
  I   I109      1.0  0.44862  0.92780  0.26909  1.0000
  I   I110      1.0  0.25797  0.41128  0.16834  1.0000
  I   I111      1.0  0.05910  0.99573  0.80563  1.0000
  I   I112      1.0  0.89552  0.65765  0.63923  1.0000
  I   I113      1.0  0.09156  0.52281  0.84505  1.0000
  I   I114      1.0  0.27628  0.21714  0.16925  1.0000
  I   I115      1.0  0.85518  0.83474  0.38335  1.0000
  I   I116      1.0  0.87982  0.88146  0.41364  1.0000
  I   I117      1.0  0.23912  0.04984  0.58146  1.0000
  I   I118      1.0  0.62268  0.59219  0.07894  1.0000
  I   I119      1.0  0.56133  0.58176  0.91568  1.0000
  I   I120      1.0  0.91397  0.99057  0.16880  1.0000
  I   I121      1.0  0.14253  0.57125  0.01082  1.0000
  I   I122      1.0  0.04391  0.44626  0.67891  1.0000
  I   I123      1.0  0.02701  0.11560  0.14584  1.0000
  I   I124      1.0  0.82057  0.49030  0.21739  1.0000
  I   I125      1.0  0.61033  0.47943  0.33415  1.0000
  I   I126      1.0  0.10088  0.94065  0.23354  1.0000
  I   I127      1.0  0.30699  0.96437  0.45039  1.0000
  I   I128      1.0  0.74171  0.41500  0.61370  1.0000
  I   I129      1.0  0.61328  0.09006  0.08306  1.0000
  I   I130      1.0  0.00839  0.50714  0.34974  1.0000
  I   I131      1.0  0.65211  0.66612  0.77841  1.0000
  I   I132      1.0  0.85236  0.52923  0.96114  1.0000
  I   I133      1.0  0.57445  0.23889  0.26125  1.0000
  I   I134      1.0  0.41816  0.33248  0.45135  1.0000
  I   I135      1.0  0.43280  0.38440  0.48397  1.0000
  I   I136      1.0  0.60809  0.12166  0.77430  1.0000
  I   I137      1.0  0.65065  0.71977  0.43534  1.0000
  I   I138      1.0  0.54672  0.72219  0.39094  1.0000
  I   I139      1.0  0.40705  0.65828  0.99897  1.0000
  I   I140      1.0  0.88693  0.15543  0.62744  1.0000
  I   I141      1.0  0.73514  0.63137  0.03693  1.0000
  I   I142      1.0  0.47216  0.58548  0.56766  1.0000
  I   I143      1.0  0.11811  0.32119  0.07066  1.0000
  I   I144      1.0  0.01849  0.14440  0.90812  1.0000
  I   I145      1.0  0.53038  0.86232  0.53429  1.0000
  I   I146      1.0  0.49746  0.16354  0.39895  1.0000
  I   I147      1.0  0.89928  0.56562  0.01998  1.0000
  I   I148      1.0  0.74149  0.28847  0.06760  1.0000
  I   I149      1.0  0.21675  0.79623  0.91750  1.0000
  I   I150      1.0  0.21456  0.16601  0.50135  1.0000
  I   I151      1.0  0.01780  0.89522  0.96759  1.0000
  I   I152      1.0  0.36762  0.48247  0.98555  1.0000
  I   I153      1.0  0.27112  0.91983  0.76955  1.0000
  I   I154      1.0  0.48161  0.04562  0.04896  1.0000
  I   I155      1.0  0.38956  0.43018  0.67912  1.0000
  I   I156      1.0  0.26703  0.55336  0.59784  1.0000
  I   I157      1.0  0.38521  0.97356  0.21635  1.0000
  I   I158      1.0  0.16383  0.89584  0.72445  1.0000
  I   I159      1.0  0.45489  0.97736  0.31442  1.0000
  I   I160      1.0  0.93666  0.63689  0.53890  1.0000
  I   I161      1.0  0.21985  0.27645  0.20353  1.0000
  I   I162      1.0  0.98331  0.65226  0.63080  1.0000
  I   I163      1.0  0.92512  0.89532  0.48332  1.0000
  I   I164      1.0  0.23813  0.06554  0.70712  1.0000
  I   I165      1.0  0.83379  0.25313  0.19029  1.0000
  I   I166      1.0  0.60856  0.51531  0.89812  1.0000
  I   I167      1.0  0.78565  0.84874  0.84155  1.0000
  I   I168      1.0  0.24480  0.67430  0.67815  1.0000
  I   I169      1.0  0.10063  0.42018  0.57198  1.0000
  I   I170      1.0  0.06588  0.37861  0.68160  1.0000
  I   I171      1.0  0.12983  0.60213  0.89252  1.0000
  I   I172      1.0  0.87844  0.46258  0.25724  1.0000
  I   I173      1.0  0.06821  0.01477  0.26191  1.0000
  I   I174      1.0  0.90690  0.42742  0.14156  1.0000
  I   I175      1.0  0.79493  0.38980  0.56032  1.0000
  I   I176      1.0  0.60237  0.15309  0.12437  1.0000
  I   I177      1.0  0.24792  0.96943  0.43282  1.0000
  I   I178      1.0  0.59192  0.66138  0.80312  1.0000
  I   I179      1.0  0.81605  0.52083  0.87969  1.0000
  I   I180      1.0  0.96017  0.60483  0.32271  1.0000
  I   I181      1.0  0.12082  0.28327  0.51515  1.0000
  I   I182      1.0  0.40668  0.46303  0.51967  1.0000
  I   I183      1.0  0.63135  0.23252  0.20252  1.0000
  I   I184      1.0  0.63976  0.76035  0.34458  1.0000
  I   I185      1.0  0.60704  0.68670  0.42881  1.0000
  I   I186      1.0  0.72462  0.02009  0.77306  1.0000
  I   I187      1.0  0.90562  0.09518  0.54792  1.0000
  I   I188      1.0  0.81971  0.59974  0.99861  1.0000
  I   I189      1.0  0.34484  0.67766  0.95634  1.0000
  I   I190      1.0  0.21239  0.26015  0.96165  1.0000
  I   I191      1.0  0.32543  0.00977  0.68661  1.0000
  I   I192      1.0  0.47517  0.55381  0.69106  1.0000
  I   I193      1.0  0.50348  0.90385  0.42967  1.0000
  I   I194      1.0  0.30737  0.02151  0.54004  1.0000
  I   I195      1.0  0.95085  0.53916  0.93578  1.0000
  I   I196      1.0  0.66315  0.29076  0.02486  1.0000
  I   I197      1.0  0.45355  0.13952  0.12798  1.0000
  I   I198      1.0  0.19576  0.20587  0.40324  1.0000
  I   I199      1.0  0.00297  0.87962  0.86346  1.0000
  I   I200      1.0  0.40125  0.52925  0.19481  1.0000
  I   I201      1.0  0.26500  0.92754  0.89138  1.0000
  I   I202      1.0  0.84714  0.68636  0.21518  1.0000
  I   I203      1.0  0.94253  0.14312  0.33013  1.0000
  I   I204      1.0  0.20284  0.62315  0.42272  1.0000
  I   I205      1.0  0.25661  0.34944  0.32324  1.0000
  I   I206      1.0  0.13001  0.93292  0.80601  1.0000
  I   I207      1.0  0.47463  0.94609  0.15417  1.0000
  I   I208      1.0  0.73090  0.78319  0.58061  1.0000
  I   I209      1.0  0.20326  0.25384  0.09807  1.0000
  I   I210      1.0  0.92528  0.68000  0.70473  1.0000
  I   I211      1.0  0.89670  0.86115  0.56076  1.0000
  I   I212      1.0  0.26645  0.00612  0.28378  1.0000
  I   I213      1.0  0.87939  0.20966  0.13663  1.0000
  I   I214      1.0  0.67432  0.52890  0.06807  1.0000
  I   I215      1.0  0.74940  0.91928  0.87038  1.0000
  I   I216      1.0  0.18450  0.68020  0.75235  1.0000
  I   I217      1.0  0.05093  0.41212  0.56271  1.0000
  I   I218      1.0  0.07473  0.12697  0.28868  1.0000
  I   I219      1.0  0.19345  0.57411  0.96122  1.0000
  I   I220      1.0  0.55506  0.49938  0.42392  1.0000
  I   I221      1.0  0.08872  0.90249  0.14054  1.0000
  I   I222      1.0  0.86346  0.49499  0.12368  1.0000
  I   I223      1.0  0.86898  0.41255  0.61222  1.0000
  I   I224      1.0  0.65884  0.11869  0.20083  1.0000
  I   I225      1.0  0.39772  0.91666  0.45791  1.0000
  I   I226      1.0  0.59387  0.72006  0.82062  1.0000
  I   I227      1.0  0.88271  0.42817  0.86826  1.0000
  I   I228      1.0  0.05938  0.49353  0.45306  1.0000
  I   I229      1.0  0.05676  0.31026  0.46512  1.0000
  I   I230      1.0  0.42473  0.34908  0.56255  1.0000
  I   I231      1.0  0.58991  0.35122  0.18000  1.0000
  I   I232      1.0  0.65846  0.72452  0.21945  1.0000
  I   I233      1.0  0.57179  0.76754  0.40140  1.0000
  I   I234      1.0  0.64374  0.12166  0.66261  1.0000
  I   I235      1.0  0.49523  0.07154  0.90658  1.0000
  I   I236      1.0  0.71686  0.66614  0.14899  1.0000
  I   I237      1.0  0.40578  0.63166  0.88560  1.0000
  I   I238      1.0  0.19398  0.31717  0.84097  1.0000
  I   I239      1.0  0.08113  0.08074  0.91179  1.0000
  I   I240      1.0  0.46722  0.52202  0.58248  1.0000
  I   I241      1.0  0.55467  0.93530  0.63701  1.0000
  I   I242      1.0  0.50524  0.13797  0.20548  1.0000
  I   I243      1.0  0.96993  0.51304  0.06315  1.0000
  I   I244      1.0  0.71813  0.35905  0.10820  1.0000
  I   I245      1.0  0.26209  0.69542  0.19568  1.0000
  I   I246      1.0  0.23546  0.23757  0.45475  1.0000
  I   I247      1.0  0.02369  0.84516  0.00959  1.0000
  I   I248      1.0  0.35880  0.44821  0.09776  1.0000
  I   I249      1.0  0.34144  0.96742  0.85714  1.0000
  I   I250      1.0  0.82901  0.69210  0.36739  1.0000
  I   I251      1.0  0.40242  0.37259  0.77655  1.0000
  I   I252      1.0  0.28973  0.58376  0.44766  1.0000
  I   I253      1.0  0.20125  0.47441  0.21400  1.0000
  I   I254      1.0  0.13391  0.94246  0.63357  1.0000
  I   I255      1.0  0.47791  0.00562  0.20941  1.0000
  I   I256      1.0  0.07750  0.57008  0.75403  1.0000
  I   I257      1.0  0.24128  0.29022  0.10249  1.0000
  I   I258      1.0  0.95582  0.61293  0.69319  1.0000
  I   I259      1.0  0.90795  0.81930  0.45817  1.0000
  I   I260      1.0  0.22455  0.00612  0.66788  1.0000
  I   I261      1.0  0.93368  0.14514  0.20191  1.0000
  I   I262      1.0  0.55878  0.52795  0.98165  1.0000
  I   I263      1.0  0.70708  0.91745  0.00556  1.0000
  I   I264      1.0  0.17706  0.73064  0.65839  1.0000
  I   I265      1.0  0.18079  0.39138  0.57224  1.0000
  I   I266      1.0  0.04448  0.09346  0.27002  1.0000
  I   I267      1.0  0.11147  0.63972  0.02131  1.0000
  I   I268      1.0  0.55192  0.53397  0.30697  1.0000
  I   I269      1.0  0.03957  0.95285  0.25926  1.0000
  I   I270      1.0  0.91169  0.36707  0.20206  1.0000
  I   I271      1.0  0.77961  0.44563  0.65395  1.0000
  I   I272      1.0  0.67925  0.07099  0.12453  1.0000
  I   I273      1.0  0.35067  0.93558  0.36590  1.0000
  I   I274      1.0  0.69405  0.65133  0.92107  1.0000
  I   I275      1.0  0.82964  0.44970  0.81388  1.0000
  I   I276      1.0  0.01749  0.45695  0.42856  1.0000
  I   I277      1.0  0.08258  0.23786  0.46017  1.0000
  I   I278      1.0  0.36654  0.40755  0.43422  1.0000
  I   I279      1.0  0.57856  0.29091  0.14653  1.0000
  I   I280      1.0  0.72198  0.69922  0.40249  1.0000
  I   I281      1.0  0.52508  0.77044  0.48874  1.0000
  I   I282      1.0  0.66459  0.07805  0.81527  1.0000
  I   I283      1.0  0.45216  0.04860  0.94769  1.0000
  I   I284      1.0  0.76211  0.66498  0.94113  1.0000
  I   I285      1.0  0.44260  0.67008  0.81976  1.0000
  I   I286      1.0  0.15630  0.28621  0.90449  1.0000
  I   I287      1.0  0.04905  0.20185  0.92562  1.0000
  I   I288      1.0  0.45558  0.59419  0.45573  1.0000
  I   I289      1.0  0.60886  0.89289  0.60177  1.0000
  I   I290      1.0  0.37762  0.00007  0.57042  1.0000
  I   I291      1.0  0.51713  0.17786  0.27025  1.0000
  I   I292      1.0  0.73352  0.37284  0.99983  1.0000
  I   I293      1.0  0.22599  0.68322  0.09602  1.0000
  I   I294      1.0  0.26462  0.23140  0.34614  1.0000
  I   I295      1.0  0.08720  0.85511  0.88899  1.0000
  I   I296      1.0  0.39118  0.49791  0.08592  1.0000
  I   I297      1.0  0.28553  0.96147  0.83815  1.0000
  I   I298      1.0  0.48580  0.11154  0.03259  1.0000
  I   I299      1.0  0.77238  0.75700  0.20821  1.0000
  I   I300      1.0  0.31404  0.56432  0.57149  1.0000
  I   I301      1.0  0.42330  0.99963  0.20695  1.0000
  I   I302      1.0  0.22323  0.40823  0.26384  1.0000
  I   I303      1.0  0.08947  0.02973  0.84660  1.0000
  I   I304      1.0  0.92517  0.63881  0.81153  1.0000
  I   I305      1.0  0.67070  0.79942  0.63531  1.0000
  I   I306      1.0  0.35442  0.47876  0.44338  1.0000
  I   I307      1.0  0.84960  0.83053  0.52052  1.0000
  I   I308      1.0  0.20807  0.02526  0.18361  1.0000
  I   I309      1.0  0.87504  0.15369  0.22741  1.0000
  I   I310      1.0  0.63732  0.53934  0.96589  1.0000
  I   I311      1.0  0.75654  0.93640  0.01772  1.0000
  I   I312      1.0  0.91688  0.03487  0.07537  1.0000
  I   I313      1.0  0.12268  0.67607  0.09188  1.0000
  I   I314      1.0  0.11077  0.40439  0.68541  1.0000
  I   I315      1.0  0.06167  0.15155  0.18025  1.0000
  I   I316      1.0  0.84849  0.43800  0.12106  1.0000
  I   I317      1.0  0.56467  0.48177  0.24254  1.0000
  I   I318      1.0  0.01325  0.01599  0.21931  1.0000
  I   I319      1.0  0.23073  0.95305  0.53938  1.0000
  I   I320      1.0  0.85593  0.38102  0.52163  1.0000
  I   I321      1.0  0.70453  0.02004  0.21667  1.0000
  I   I322      1.0  0.59745  0.67899  0.92444  1.0000
  I   I323      1.0  0.87685  0.48306  0.80773  1.0000
  I   I324      1.0  0.01725  0.54649  0.40448  1.0000
  I   I325      1.0  0.10607  0.31651  0.39234  1.0000
  I   I326      1.0  0.42625  0.43258  0.42177  1.0000
  I   I327      1.0  0.53292  0.37234  0.24479  1.0000
  I   I328      1.0  0.68771  0.76052  0.21375  1.0000
  I   I329      1.0  0.52605  0.75366  0.62689  1.0000
  I   I330      1.0  0.64055  0.06718  0.69721  1.0000
  I   I331      1.0  0.37352  0.72905  0.92466  1.0000
  I   I332      1.0  0.43564  0.09306  0.15047  1.0000
  I   I333      1.0  0.78446  0.62538  0.19203  1.0000
  I   I334      1.0  0.40936  0.56096  0.67574  1.0000
  I   I335      1.0  0.16595  0.32433  0.99044  1.0000
  I   I336      1.0  0.98654  0.20711  0.87972  1.0000
  I   I337      1.0  0.57398  0.95582  0.50224  1.0000
  I   I338      1.0  0.34276  0.96306  0.59755  1.0000
  I   I339      1.0  0.57000  0.10736  0.23183  1.0000
  I   I340      1.0  0.68616  0.33812  0.02954  1.0000
  I   I341      1.0  0.24111  0.83174  0.02787  1.0000
  I   I342      1.0  0.25017  0.11694  0.39967  1.0000
  I   I343      1.0  0.00131  0.81868  0.91318  1.0000
  I   I344      1.0  0.31203  0.50416  0.02242  1.0000
  I   I345      1.0  0.33451  0.91198  0.78039  1.0000
  I   I346      1.0  0.50780  0.08547  0.13070  1.0000
  I   I347      1.0  0.88179  0.65099  0.29352  1.0000
  I   I348      1.0  0.24909  0.64930  0.45823  1.0000
  I   I349      1.0  0.51261  0.93724  0.24712  1.0000
  I   I350      1.0  0.27740  0.45014  0.23754  1.0000
  I   I351      1.0  0.12072  0.98191  0.74869  1.0000
  I   I352      1.0  0.88253  0.62514  0.73524  1.0000
  I   I353      1.0  0.01798  0.57385  0.82015  1.0000
  I   I354      1.0  0.40061  0.49055  0.34969  1.0000
  I   I355      1.0  0.83640  0.89584  0.49800  1.0000
  I   I356      1.0  0.17590  0.07719  0.63230  1.0000
  I   I357      1.0  0.81908  0.21225  0.21326  1.0000
  I   I358      1.0  0.20266  0.73396  0.77144  1.0000
  I   I359      1.0  0.74377  0.88392  0.09170  1.0000
  I   I360      1.0  0.88251  0.05592  0.20754  1.0000
  I   I361      1.0  0.15394  0.64684  0.93332  1.0000
  I   I362      1.0  0.17296  0.38066  0.68687  1.0000
  I   I363      1.0  0.08482  0.06027  0.35437  1.0000
  I   I364      1.0  0.85914  0.37636  0.13150  1.0000
  I   I365      1.0  0.49183  0.53182  0.36053  1.0000
  I   I366      1.0  0.06546  0.94631  0.06536  1.0000
  I   I367      1.0  0.30632  0.92602  0.54670  1.0000
  I   I368      1.0  0.78935  0.35592  0.68491  1.0000
  I   I369      1.0  0.69713  0.06916  0.29758  1.0000
  I   I370      1.0  0.65579  0.62245  0.87418  1.0000
  I   I371      1.0  0.90533  0.51909  0.88538  1.0000
  I   I372      1.0  0.98060  0.56053  0.24743  1.0000
  I   I373      1.0  0.09609  0.19910  0.33095  1.0000
  I   I374      1.0  0.36406  0.35923  0.52247  1.0000
  I   I375      1.0  0.52269  0.35806  0.14117  1.0000
  I   I376      1.0  0.68441  0.68024  0.33412  1.0000
  I   I377      1.0  0.56166  0.70533  0.52231  1.0000
  I   I378      1.0  0.74328  0.06169  0.72674  1.0000
  I   I379      1.0  0.43226  0.72807  0.89840  1.0000
  I   I380      1.0  0.84331  0.16330  0.51749  1.0000
  I   I381      1.0  0.77798  0.65456  0.06884  1.0000
  I   I382      1.0  0.41377  0.61171  0.62791  1.0000
  I   I383      1.0  0.10968  0.28253  0.98309  1.0000
  I   I384      1.0  0.04119  0.18170  0.79242  1.0000
