data_image0
_chemical_formula_structural       Ti96I384
_chemical_formula_sum              "Ti96 I384"
_cell_length_a       62.788
_cell_length_b       62.4902
_cell_length_c       30.5587
_cell_angle_alpha    88.7757
_cell_angle_beta     88.7757
_cell_angle_gamma    62.1586

_space_group_name_H-M_alt    "P 1"
_space_group_IT_number       1

loop_
  _space_group_symop_operation_xyz
  'x, y, z'

loop_
  _atom_site_type_symbol
  _atom_site_label
  _atom_site_symmetry_multiplicity
  _atom_site_fract_x
  _atom_site_fract_y
  _atom_site_fract_z
  _atom_site_occupancy
  Ti  Ti1       1.0  0.59176  0.93109  0.52869  1.0000
  Ti  Ti2       1.0  0.53747  0.11092  0.27920  1.0000
  Ti  Ti3       1.0  0.05480  0.43481  0.09431  1.0000
  Ti  Ti4       1.0  0.50760  0.47515  0.83880  1.0000
  Ti  Ti5       1.0  0.20205  0.79298  0.00815  1.0000
  Ti  Ti6       1.0  0.36912  0.15928  0.63581  1.0000
  Ti  Ti7       1.0  0.02327  0.87596  0.72574  1.0000
  Ti  Ti8       1.0  0.26759  0.54787  0.26503  1.0000
  Ti  Ti9       1.0  0.29858  0.90924  0.84741  1.0000
  Ti  Ti10      1.0  0.91469  0.79239  0.94969  1.0000
  Ti  Ti11      1.0  0.30584  0.57686  0.85484  1.0000
  Ti  Ti12      1.0  0.24295  0.63742  0.63819  1.0000
  Ti  Ti13      1.0  0.29290  0.37395  0.39306  1.0000
  Ti  Ti14      1.0  0.14416  0.98664  0.62999  1.0000
  Ti  Ti15      1.0  0.38254  0.91701  0.10990  1.0000
  Ti  Ti16      1.0  0.88393  0.69909  0.86697  1.0000
  Ti  Ti17      1.0  0.14780  0.30570  0.24613  1.0000
  Ti  Ti18      1.0  0.84122  0.57383  0.68218  1.0000
  Ti  Ti19      1.0  0.86987  0.92609  0.56070  1.0000
  Ti  Ti20      1.0  0.20610  0.08191  0.57161  1.0000
  Ti  Ti21      1.0  0.79207  0.23162  0.27983  1.0000
  Ti  Ti22      1.0  0.59738  0.64127  0.13003  1.0000
  Ti  Ti23      1.0  0.73537  0.84346  0.91360  1.0000
  Ti  Ti24      1.0  0.30693  0.77097  0.60168  1.0000
  Ti  Ti25      1.0  0.20953  0.33713  0.70115  1.0000
  Ti  Ti26      1.0  0.07377  0.16344  0.25267  1.0000
  Ti  Ti27      1.0  0.13796  0.65094  0.81991  1.0000
  Ti  Ti28      1.0  0.63089  0.50702  0.40101  1.0000
  Ti  Ti29      1.0  0.03137  0.96450  0.16130  1.0000
  Ti  Ti30      1.0  0.92008  0.41851  0.39175  1.0000
  Ti  Ti31      1.0  0.70632  0.39427  0.63144  1.0000
  Ti  Ti32      1.0  0.64715  0.05772  0.12823  1.0000
  Ti  Ti33      1.0  0.35107  0.81832  0.43853  1.0000
  Ti  Ti34      1.0  0.65458  0.69613  0.74914  1.0000
  Ti  Ti35      1.0  0.89748  0.37315  0.78768  1.0000
  Ti  Ti36      1.0  0.05018  0.52281  0.43213  1.0000
  Ti  Ti37      1.0  0.98461  0.32715  0.54634  1.0000
  Ti  Ti38      1.0  0.39419  0.41242  0.68218  1.0000
  Ti  Ti39      1.0  0.47217  0.29124  0.06732  1.0000
  Ti  Ti40      1.0  0.69567  0.72410  0.38196  1.0000
  Ti  Ti41      1.0  0.48619  0.70036  0.39008  1.0000
  Ti  Ti42      1.0  0.75153  0.96926  0.70672  1.0000
  Ti  Ti43      1.0  0.36757  0.11862  0.92922  1.0000
  Ti  Ti44      1.0  0.85817  0.61300  0.12862  1.0000
  Ti  Ti45      1.0  0.39114  0.72988  0.87174  1.0000
  Ti  Ti46      1.0  0.16199  0.25381  0.94724  1.0000
  Ti  Ti47      1.0  0.95109  0.17570  0.88960  1.0000
  Ti  Ti48      1.0  0.46503  0.50842  0.50956  1.0000
  Ti  Ti49      1.0  0.63538  0.93712  0.57421  1.0000
  Ti  Ti50      1.0  0.56735  0.08143  0.60609  1.0000
  Ti  Ti51      1.0  0.51921  0.17168  0.28253  1.0000
  Ti  Ti52      1.0  0.55489  0.43019  0.73106  1.0000
  Ti  Ti53      1.0  0.21392  0.73459  0.04947  1.0000
  Ti  Ti54      1.0  0.33262  0.13926  0.55750  1.0000
  Ti  Ti55      1.0  0.09539  0.84599  0.76301  1.0000
  Ti  Ti56      1.0  0.27761  0.59615  0.23114  1.0000
  Ti  Ti57      1.0  0.25039  0.94901  0.88541  1.0000
  Ti  Ti58      1.0  0.39892  0.07406  0.03982  1.0000
  Ti  Ti59      1.0  0.89213  0.76690  0.05139  1.0000
  Ti  Ti60      1.0  0.25048  0.58991  0.62399  1.0000
  Ti  Ti61      1.0  0.39297  0.86252  0.13018  1.0000
  Ti  Ti62      1.0  0.33180  0.36451  0.28841  1.0000
  Ti  Ti63      1.0  0.15839  0.92535  0.65336  1.0000
  Ti  Ti64      1.0  0.84944  0.61812  0.57808  1.0000
  Ti  Ti65      1.0  0.93372  0.59434  0.95971  1.0000
  Ti  Ti66      1.0  0.44664  0.29852  0.54178  1.0000
  Ti  Ti67      1.0  0.87513  0.91940  0.42998  1.0000
  Ti  Ti68      1.0  0.23620  0.09127  0.66463  1.0000
  Ti  Ti69      1.0  0.84170  0.23892  0.21523  1.0000
  Ti  Ti70      1.0  0.65097  0.61510  0.10712  1.0000
  Ti  Ti71      1.0  0.75959  0.87635  0.00283  1.0000
  Ti  Ti72      1.0  0.86830  0.97848  0.03558  1.0000
  Ti  Ti73      1.0  0.13272  0.61390  0.88117  1.0000
  Ti  Ti74      1.0  0.19794  0.40280  0.65529  1.0000
  Ti  Ti75      1.0  0.02384  0.16786  0.25833  1.0000
  Ti  Ti76      1.0  0.98140  0.38207  0.31479  1.0000
  Ti  Ti77      1.0  0.61784  0.47605  0.28653  1.0000
  Ti  Ti78      1.0  0.06924  0.97998  0.09542  1.0000
  Ti  Ti79      1.0  0.31131  0.89116  0.37918  1.0000
  Ti  Ti80      1.0  0.75122  0.42862  0.57736  1.0000
  Ti  Ti81      1.0  0.68145  0.09175  0.09625  1.0000
  Ti  Ti82      1.0  0.65736  0.73289  0.80081  1.0000
  Ti  Ti83      1.0  0.84768  0.44278  0.73200  1.0000
  Ti  Ti84      1.0  0.99935  0.50004  0.40465  1.0000
  Ti  Ti85      1.0  0.06924  0.28375  0.60349  1.0000
  Ti  Ti86      1.0  0.40088  0.35529  0.60617  1.0000
  Ti  Ti87      1.0  0.49124  0.31432  0.14743  1.0000
  Ti  Ti88      1.0  0.72718  0.77604  0.38731  1.0000
  Ti  Ti89      1.0  0.47263  0.71018  0.52032  1.0000
  Ti  Ti90      1.0  0.76246  0.97669  0.79696  1.0000
  Ti  Ti91      1.0  0.35072  0.73516  0.80472  1.0000
  Ti  Ti92      1.0  0.86874  0.17970  0.57710  1.0000
  Ti  Ti93      1.0  0.83641  0.59908  0.02175  1.0000
  Ti  Ti94      1.0  0.48011  0.54492  0.58203  1.0000
  Ti  Ti95      1.0  0.18276  0.18527  0.93251  1.0000
  Ti  Ti96      1.0  0.96509  0.14570  0.97142  1.0000
  I   I1        1.0  0.95391  0.16232  0.05420  1.0000
  I   I2        1.0  0.54421  0.17309  0.35400  1.0000
  I   I3        1.0  0.57267  0.97677  0.51154  1.0000
  I   I4        1.0  0.21302  0.70101  0.99730  1.0000
  I   I5        1.0  0.39243  0.18355  0.61311  1.0000
  I   I6        1.0  0.33486  0.18861  0.56017  1.0000
  I   I7        1.0  0.28215  0.62947  0.27014  1.0000
  I   I8        1.0  0.23342  0.61964  0.18968  1.0000
  I   I9        1.0  0.22360  0.93496  0.84202  1.0000
  I   I10       1.0  0.95257  0.79423  0.95357  1.0000
  I   I11       1.0  0.33433  0.59203  0.88403  1.0000
  I   I12       1.0  0.15620  0.82646  0.00493  1.0000
  I   I13       1.0  0.32266  0.39799  0.36824  1.0000
  I   I14       1.0  0.17934  0.91991  0.57146  1.0000
  I   I15       1.0  0.40454  0.94195  0.14257  1.0000
  I   I16       1.0  0.87571  0.71055  0.94467  1.0000
  I   I17       1.0  0.44324  0.30877  0.45632  1.0000
  I   I18       1.0  0.89073  0.57400  0.58371  1.0000
  I   I19       1.0  0.25215  0.06762  0.57870  1.0000
  I   I20       1.0  0.32673  0.53240  0.83795  1.0000
  I   I21       1.0  0.81488  0.25933  0.30674  1.0000
  I   I22       1.0  0.80757  0.85665  0.01305  1.0000
  I   I23       1.0  0.71995  0.86967  0.98950  1.0000
  I   I24       1.0  0.65144  0.57206  0.11915  1.0000
  I   I25       1.0  0.18108  0.41760  0.73229  1.0000
  I   I26       1.0  0.07170  0.19773  0.31087  1.0000
  I   I27       1.0  0.16757  0.64895  0.88020  1.0000
  I   I28       1.0  0.65218  0.44033  0.23391  1.0000
  I   I29       1.0  0.08303  0.95381  0.18266  1.0000
  I   I30       1.0  0.00995  0.33665  0.31169  1.0000
  I   I31       1.0  0.73784  0.45275  0.50337  1.0000
  I   I32       1.0  0.72665  0.06148  0.09255  1.0000
  I   I33       1.0  0.27879  0.93768  0.39701  1.0000
  I   I34       1.0  0.83239  0.48338  0.76371  1.0000
  I   I35       1.0  0.02383  0.46509  0.46620  1.0000
  I   I36       1.0  0.66315  0.65325  0.74820  1.0000
  I   I37       1.0  0.94756  0.35785  0.58425  1.0000
  I   I38       1.0  0.49701  0.26358  0.14483  1.0000
  I   I39       1.0  0.07194  0.31130  0.54283  1.0000
  I   I40       1.0  0.43306  0.74486  0.53890  1.0000
  I   I41       1.0  0.80425  0.93856  0.76523  1.0000
  I   I42       1.0  0.69842  0.71368  0.46477  1.0000
  I   I43       1.0  0.36313  0.08387  0.98447  1.0000
  I   I44       1.0  0.85499  0.57641  0.95328  1.0000
  I   I45       1.0  0.36538  0.77917  0.84554  1.0000
  I   I46       1.0  0.12013  0.26263  0.98208  1.0000
  I   I47       1.0  0.96978  0.12941  0.87588  1.0000
  I   I48       1.0  0.47758  0.50203  0.60281  1.0000
  I   I49       1.0  0.66586  0.90895  0.63101  1.0000
  I   I50       1.0  0.55555  0.14946  0.23126  1.0000
  I   I51       1.0  0.53864  0.09086  0.20119  1.0000
  I   I52       1.0  0.50601  0.51411  0.87761  1.0000
  I   I53       1.0  0.19107  0.76537  0.96213  1.0000
  I   I54       1.0  0.33631  0.14061  0.46949  1.0000
  I   I55       1.0  0.00084  0.88846  0.80250  1.0000
  I   I56       1.0  0.30857  0.55752  0.28745  1.0000
  I   I57       1.0  0.27197  0.90248  0.91838  1.0000
  I   I58       1.0  0.93211  0.75739  0.88958  1.0000
  I   I59       1.0  0.88755  0.83675  0.92588  1.0000
  I   I60       1.0  0.26649  0.61540  0.55660  1.0000
  I   I61       1.0  0.34029  0.32617  0.23857  1.0000
  I   I62       1.0  0.32533  0.40070  0.23289  1.0000
  I   I63       1.0  0.16548  0.98735  0.55224  1.0000
  I   I64       1.0  0.86143  0.67543  0.84311  1.0000
  I   I65       1.0  0.96017  0.58841  0.89286  1.0000
  I   I66       1.0  0.42291  0.27353  0.52182  1.0000
  I   I67       1.0  0.85854  0.89319  0.38771  1.0000
  I   I68       1.0  0.21862  0.04425  0.50924  1.0000
  I   I69       1.0  0.78678  0.23075  0.19549  1.0000
  I   I70       1.0  0.69341  0.60530  0.13356  1.0000
  I   I71       1.0  0.72307  0.80967  0.93186  1.0000
  I   I72       1.0  0.83249  0.01578  0.06811  1.0000
  I   I73       1.0  0.10340  0.69669  0.81693  1.0000
  I   I74       1.0  0.05805  0.12964  0.21808  1.0000
  I   I75       1.0  0.03406  0.19466  0.19338  1.0000
  I   I76       1.0  0.65510  0.45963  0.35236  1.0000
  I   I77       1.0  0.62615  0.51468  0.26344  1.0000
  I   I78       1.0  0.02065  0.99896  0.22547  1.0000
  I   I79       1.0  0.34223  0.90027  0.42156  1.0000
  I   I80       1.0  0.69512  0.39208  0.54952  1.0000
  I   I81       1.0  0.66175  0.04933  0.04806  1.0000
  I   I82       1.0  0.64642  0.70477  0.66082  1.0000
  I   I83       1.0  0.85200  0.39320  0.74756  1.0000
  I   I84       1.0  0.04101  0.56743  0.42569  1.0000
  I   I85       1.0  0.98190  0.36169  0.48696  1.0000
  I   I86       1.0  0.36504  0.36545  0.66362  1.0000
  I   I87       1.0  0.44605  0.32585  0.00835  1.0000
  I   I88       1.0  0.74434  0.72376  0.38342  1.0000
  I   I89       1.0  0.47636  0.73986  0.44579  1.0000
  I   I90       1.0  0.72058  0.01532  0.77253  1.0000
  I   I91       1.0  0.39397  0.72420  0.76287  1.0000
  I   I92       1.0  0.90540  0.16243  0.51959  1.0000
  I   I93       1.0  0.82366  0.56612  0.05831  1.0000
  I   I94       1.0  0.43963  0.53193  0.44372  1.0000
  I   I95       1.0  0.16950  0.17617  0.00747  1.0000
  I   I96       1.0  0.96308  0.10685  0.98748  1.0000
  I   I97       1.0  0.03729  0.40541  0.12386  1.0000
  I   I98       1.0  0.64385  0.91454  0.50082  1.0000
  I   I99       1.0  0.58141  0.09088  0.30347  1.0000
  I   I100      1.0  0.55477  0.40111  0.67749  1.0000
  I   I101      1.0  0.46843  0.51048  0.80327  1.0000
  I   I102      1.0  0.21430  0.82611  0.01147  1.0000
  I   I103      1.0  0.99550  0.86732  0.67938  1.0000
  I   I104      1.0  0.09182  0.85009  0.85032  1.0000
  I   I105      1.0  0.27230  0.93720  0.77486  1.0000
  I   I106      1.0  0.22585  0.58005  0.56728  1.0000
  I   I107      1.0  0.89549  0.81195  0.05147  1.0000
  I   I108      1.0  0.29120  0.61014  0.65370  1.0000
  I   I109      1.0  0.36491  0.84479  0.16172  1.0000
  I   I110      1.0  0.25912  0.36015  0.39106  1.0000
  I   I111      1.0  0.14979  0.01534  0.68371  1.0000
  I   I112      1.0  0.87423  0.63995  0.56696  1.0000
  I   I113      1.0  0.92161  0.56133  0.97037  1.0000
  I   I114      1.0  0.18590  0.31169  0.23874  1.0000
  I   I115      1.0  0.91266  0.89846  0.59801  1.0000
  I   I116      1.0  0.91629  0.90343  0.38710  1.0000
  I   I117      1.0  0.26779  0.10895  0.65227  1.0000
  I   I118      1.0  0.62447  0.66886  0.11292  1.0000
  I   I119      1.0  0.55902  0.67981  0.15603  1.0000
  I   I120      1.0  0.85563  0.94581  0.04808  1.0000
  I   I121      1.0  0.14685  0.60993  0.96703  1.0000
  I   I122      1.0  0.16692  0.37374  0.65446  1.0000
  I   I123      1.0  0.09396  0.13120  0.30875  1.0000
  I   I124      1.0  0.91244  0.41347  0.47238  1.0000
  I   I125      1.0  0.61550  0.54974  0.43002  1.0000
  I   I126      1.0  0.05054  0.99245  0.01100  1.0000
  I   I127      1.0  0.34518  0.83632  0.35736  1.0000
  I   I128      1.0  0.67602  0.42306  0.69707  1.0000
  I   I129      1.0  0.67243  0.09957  0.00902  1.0000
  I   I130      1.0  0.00386  0.53967  0.44763  1.0000
  I   I131      1.0  0.65859  0.69111  0.84600  1.0000
  I   I132      1.0  0.80694  0.45246  0.68223  1.0000
  I   I133      1.0  0.51430  0.29974  0.07034  1.0000
  I   I134      1.0  0.41995  0.41330  0.74498  1.0000
  I   I135      1.0  0.37731  0.40815  0.59865  1.0000
  I   I136      1.0  0.70724  0.99366  0.67383  1.0000
  I   I137      1.0  0.69940  0.81913  0.40506  1.0000
  I   I138      1.0  0.49137  0.66492  0.33652  1.0000
  I   I139      1.0  0.39303  0.73833  0.95779  1.0000
  I   I140      1.0  0.83461  0.20572  0.52236  1.0000
  I   I141      1.0  0.88429  0.58019  0.05808  1.0000
  I   I142      1.0  0.43918  0.56641  0.61794  1.0000
  I   I143      1.0  0.22601  0.16734  0.89207  1.0000
  I   I144      1.0  0.98259  0.17847  0.82316  1.0000
  I   I145      1.0  0.65031  0.96477  0.52219  1.0000
  I   I146      1.0  0.51403  0.08834  0.30924  1.0000
  I   I147      1.0  0.02901  0.46203  0.03312  1.0000
  I   I148      1.0  0.55234  0.46772  0.79280  1.0000
  I   I149      1.0  0.24960  0.74848  0.99752  1.0000
  I   I150      1.0  0.37852  0.11464  0.57237  1.0000
  I   I151      1.0  0.12989  0.80354  0.76185  1.0000
  I   I152      1.0  0.29367  0.53399  0.19563  1.0000
  I   I153      1.0  0.34706  0.89156  0.82826  1.0000
  I   I154      1.0  0.41681  0.02982  0.01267  1.0000
  I   I155      1.0  0.26197  0.58774  0.87296  1.0000
  I   I156      1.0  0.20239  0.63918  0.61864  1.0000
  I   I157      1.0  0.36906  0.94780  0.03957  1.0000
  I   I158      1.0  0.18833  0.88626  0.69402  1.0000
  I   I159      1.0  0.39744  0.89153  0.19508  1.0000
  I   I160      1.0  0.83236  0.62606  0.49812  1.0000
  I   I161      1.0  0.11888  0.33064  0.18092  1.0000
  I   I162      1.0  0.79344  0.58752  0.69568  1.0000
  I   I163      1.0  0.85329  0.95859  0.37952  1.0000
  I   I164      1.0  0.22296  0.12196  0.73147  1.0000
  I   I165      1.0  0.86140  0.22799  0.13143  1.0000
  I   I166      1.0  0.58210  0.64442  0.05093  1.0000
  I   I167      1.0  0.77168  0.80590  0.87306  1.0000
  I   I168      1.0  0.28308  0.77948  0.53311  1.0000
  I   I169      1.0  0.23349  0.35987  0.63409  1.0000
  I   I170      1.0  0.18475  0.32388  0.75384  1.0000
  I   I171      1.0  0.09400  0.65000  0.90237  1.0000
  I   I172      1.0  0.88718  0.41215  0.35819  1.0000
  I   I173      1.0  0.07752  0.01666  0.10441  1.0000
  I   I174      1.0  0.94422  0.42184  0.28269  1.0000
  I   I175      1.0  0.69845  0.44520  0.57396  1.0000
  I   I176      1.0  0.68573  0.12980  0.10611  1.0000
  I   I177      1.0  0.34809  0.84763  0.50130  1.0000
  I   I178      1.0  0.64014  0.76298  0.86713  1.0000
  I   I179      1.0  0.91044  0.32718  0.76113  1.0000
  I   I180      1.0  0.01433  0.46705  0.32976  1.0000
  I   I181      1.0  0.02297  0.28291  0.59188  1.0000
  I   I182      1.0  0.37422  0.34645  0.54989  1.0000
  I   I183      1.0  0.50023  0.24805  0.02616  1.0000
  I   I184      1.0  0.67879  0.77515  0.37274  1.0000
  I   I185      1.0  0.50964  0.66872  0.46683  1.0000
  I   I186      1.0  0.77400  0.00857  0.82418  1.0000
  I   I187      1.0  0.85072  0.15387  0.60981  1.0000
  I   I188      1.0  0.81730  0.61733  0.17059  1.0000
  I   I189      1.0  0.37988  0.69398  0.86004  1.0000
  I   I190      1.0  0.17879  0.27723  0.00301  1.0000
  I   I191      1.0  0.55166  0.05167  0.58174  1.0000
  I   I192      1.0  0.50438  0.51698  0.49564  1.0000
  I   I193      1.0  0.60538  0.96569  0.63517  1.0000
  I   I194      1.0  0.52794  0.12478  0.62084  1.0000
  I   I195      1.0  0.05823  0.45780  0.16265  1.0000
  I   I196      1.0  0.51577  0.45398  0.91316  1.0000
  I   I197      1.0  0.34253  0.16618  0.90193  1.0000
  I   I198      1.0  0.32196  0.15685  0.64219  1.0000
  I   I199      1.0  0.10434  0.85581  0.67656  1.0000
  I   I200      1.0  0.29755  0.59813  0.15740  1.0000
  I   I201      1.0  0.29807  0.86846  0.82202  1.0000
  I   I202      1.0  0.93074  0.75088  0.00720  1.0000
  I   I203      1.0  0.75320  0.27022  0.29059  1.0000
  I   I204      1.0  0.23623  0.65363  0.71639  1.0000
  I   I205      1.0  0.38025  0.34497  0.30807  1.0000
  I   I206      1.0  0.18194  0.94956  0.67507  1.0000
  I   I207      1.0  0.37138  0.87822  0.05523  1.0000
  I   I208      1.0  0.87264  0.73209  0.80775  1.0000
  I   I209      1.0  0.13473  0.32816  0.32080  1.0000
  I   I210      1.0  0.82852  0.58530  0.58662  1.0000
  I   I211      1.0  0.89594  0.93837  0.49135  1.0000
  I   I212      1.0  0.16707  0.10305  0.52685  1.0000
  I   I213      1.0  0.88332  0.21489  0.24554  1.0000
  I   I214      1.0  0.65237  0.62723  0.03129  1.0000
  I   I215      1.0  0.70953  0.86678  0.84664  1.0000
  I   I216      1.0  0.35360  0.74369  0.59981  1.0000
  I   I217      1.0  0.24087  0.33111  0.76268  1.0000
  I   I218      1.0  0.99584  0.14480  0.24192  1.0000
  I   I219      1.0  0.12937  0.57410  0.87617  1.0000
  I   I220      1.0  0.63437  0.47928  0.47585  1.0000
  I   I221      1.0  0.98787  0.97364  0.14658  1.0000
  I   I222      1.0  0.94574  0.36989  0.37032  1.0000
  I   I223      1.0  0.74976  0.38934  0.64513  1.0000
  I   I224      1.0  0.63690  0.10571  0.13109  1.0000
  I   I225      1.0  0.39667  0.79007  0.41873  1.0000
  I   I226      1.0  0.69930  0.72813  0.83251  1.0000
  I   I227      1.0  0.93415  0.38530  0.78031  1.0000
  I   I228      1.0  0.09039  0.51534  0.38924  1.0000
  I   I229      1.0  0.08240  0.29941  0.67365  1.0000
  I   I230      1.0  0.40014  0.44906  0.64319  1.0000
  I   I231      1.0  0.49840  0.30442  0.23070  1.0000
  I   I232      1.0  0.71952  0.67442  0.36984  1.0000
  I   I233      1.0  0.48532  0.73000  0.33457  1.0000
  I   I234      1.0  0.76570  0.93280  0.65161  1.0000
  I   I235      1.0  0.36932  0.08787  0.11276  1.0000
  I   I236      1.0  0.83884  0.64548  0.06123  1.0000
  I   I237      1.0  0.43722  0.71217  0.86216  1.0000
  I   I238      1.0  0.13982  0.29829  0.89962  1.0000
  I   I239      1.0  0.00785  0.13844  0.94298  1.0000
  I   I240      1.0  0.50484  0.53969  0.65580  1.0000
  I   I241      1.0  0.59479  0.90786  0.45373  1.0000
  I   I242      1.0  0.47701  0.20944  0.30907  1.0000
  I   I243      1.0  0.10170  0.40725  0.06697  1.0000
  I   I244      1.0  0.51606  0.43667  0.78940  1.0000
  I   I245      1.0  0.17932  0.73547  0.10025  1.0000
  I   I246      1.0  0.34009  0.20235  0.68252  1.0000
  I   I247      1.0  0.05481  0.83117  0.75560  1.0000
  I   I248      1.0  0.24694  0.59656  0.28938  1.0000
  I   I249      1.0  0.23677  0.99755  0.88384  1.0000
  I   I250      1.0  0.85419  0.75938  0.07175  1.0000
  I   I251      1.0  0.30707  0.59489  0.77752  1.0000
  I   I252      1.0  0.29177  0.54896  0.60293  1.0000
  I   I253      1.0  0.32639  0.33527  0.43272  1.0000
  I   I254      1.0  0.12076  0.92369  0.63113  1.0000
  I   I255      1.0  0.42882  0.87993  0.11394  1.0000
  I   I256      1.0  0.89375  0.63223  0.94698  1.0000
  I   I257      1.0  0.17253  0.26519  0.19116  1.0000
  I   I258      1.0  0.86576  0.56118  0.75282  1.0000
  I   I259      1.0  0.84882  0.97133  0.57984  1.0000
  I   I260      1.0  0.24678  0.05967  0.73401  1.0000
  I   I261      1.0  0.78587  0.20780  0.34587  1.0000
  I   I262      1.0  0.58807  0.61270  0.17925  1.0000
  I   I263      1.0  0.77115  0.85941  0.90853  1.0000
  I   I264      1.0  0.29431  0.74765  0.65592  1.0000
  I   I265      1.0  0.16481  0.44200  0.61316  1.0000
  I   I266      1.0  0.03404  0.16533  0.34334  1.0000
  I   I267      1.0  0.10176  0.63836  0.79462  1.0000
  I   I268      1.0  0.59085  0.50546  0.35395  1.0000
  I   I269      1.0  0.08990  0.93305  0.07283  1.0000
  I   I270      1.0  0.01090  0.39400  0.25850  1.0000
  I   I271      1.0  0.74494  0.46271  0.63221  1.0000
  I   I272      1.0  0.60181  0.06574  0.10667  1.0000
  I   I273      1.0  0.33036  0.79528  0.47621  1.0000
  I   I274      1.0  0.69760  0.69568  0.74062  1.0000
  I   I275      1.0  0.92338  0.35130  0.86401  1.0000
  I   I276      1.0  0.07460  0.49668  0.50243  1.0000
  I   I277      1.0  0.98445  0.29956  0.48432  1.0000
  I   I278      1.0  0.42546  0.36224  0.68306  1.0000
  I   I279      1.0  0.43584  0.27705  0.07257  1.0000
  I   I280      1.0  0.76167  0.77205  0.33513  1.0000
  I   I281      1.0  0.43972  0.70938  0.39818  1.0000
  I   I282      1.0  0.77261  0.99553  0.69802  1.0000
  I   I283      1.0  0.42864  0.08727  0.07373  1.0000
  I   I284      1.0  0.88888  0.57546  0.18543  1.0000
  I   I285      1.0  0.33930  0.74679  0.89757  1.0000
  I   I286      1.0  0.16950  0.22826  0.86351  1.0000
  I   I287      1.0  0.91802  0.17180  0.94610  1.0000
  I   I288      1.0  0.42012  0.50484  0.52707  1.0000
  I   I289      1.0  0.55022  0.93840  0.56969  1.0000
  I   I290      1.0  0.58493  0.06123  0.67959  1.0000
  I   I291      1.0  0.48876  0.16640  0.22105  1.0000
  I   I292      1.0  0.58839  0.40127  0.78834  1.0000
  I   I293      1.0  0.25412  0.70827  0.08759  1.0000
  I   I294      1.0  0.39232  0.13749  0.70246  1.0000
  I   I295      1.0  0.01558  0.91624  0.67846  1.0000
  I   I296      1.0  0.28469  0.50674  0.30744  1.0000
  I   I297      1.0  0.29918  0.93789  0.90911  1.0000
  I   I298      1.0  0.35647  0.13964  0.01989  1.0000
  I   I299      1.0  0.86857  0.79398  0.97141  1.0000
  I   I300      1.0  0.23770  0.57128  0.69035  1.0000
  I   I301      1.0  0.34016  0.94115  0.14618  1.0000
  I   I302      1.0  0.28291  0.38423  0.30551  1.0000
  I   I303      1.0  0.09908  0.02057  0.61378  1.0000
  I   I304      1.0  0.85735  0.53234  0.63229  1.0000
  I   I305      1.0  0.92655  0.66836  0.83727  1.0000
  I   I306      1.0  0.43306  0.29917  0.62914  1.0000
  I   I307      1.0  0.85502  0.90541  0.62583  1.0000
  I   I308      1.0  0.20678  0.05501  0.63627  1.0000
  I   I309      1.0  0.83341  0.28256  0.20611  1.0000
  I   I310      1.0  0.63186  0.63073  0.19714  1.0000
  I   I311      1.0  0.73492  0.92410  0.98829  1.0000
  I   I312      1.0  0.88396  0.97348  0.95453  1.0000
  I   I313      1.0  0.16887  0.60045  0.81840  1.0000
  I   I314      1.0  0.22421  0.29967  0.65146  1.0000
  I   I315      1.0  0.10760  0.15209  0.19635  1.0000
  I   I316      1.0  0.89295  0.46415  0.40328  1.0000
  I   I317      1.0  0.67647  0.49732  0.39265  1.0000
  I   I318      1.0  0.02149  0.00341  0.10198  1.0000
  I   I319      1.0  0.29926  0.86135  0.43980  1.0000
  I   I320      1.0  0.79310  0.40041  0.54791  1.0000
  I   I321      1.0  0.67575  0.00782  0.14329  1.0000
  I   I322      1.0  0.61365  0.74228  0.75934  1.0000
  I   I323      1.0  0.87281  0.42367  0.81144  1.0000
  I   I324      1.0  0.95770  0.50716  0.40596  1.0000
  I   I325      1.0  0.10590  0.24409  0.57599  1.0000
  I   I326      1.0  0.43948  0.34643  0.54994  1.0000
  I   I327      1.0  0.44442  0.32260  0.13614  1.0000
  I   I328      1.0  0.66649  0.73013  0.32376  1.0000
  I   I329      1.0  0.49213  0.69981  0.59643  1.0000
  I   I330      1.0  0.74126  0.94634  0.78019  1.0000
  I   I331      1.0  0.31938  0.76588  0.74024  1.0000
  I   I332      1.0  0.41476  0.09696  0.93152  1.0000
  I   I333      1.0  0.79134  0.62427  0.99910  1.0000
  I   I334      1.0  0.47726  0.58076  0.53462  1.0000
  I   I335      1.0  0.19525  0.21622  0.98560  1.0000
  I   I336      1.0  0.91921  0.20550  0.83516  1.0000
  I   I337      1.0  0.61579  0.89955  0.59465  1.0000
  I   I338      1.0  0.60302  0.07529  0.55864  1.0000
  I   I339      1.0  0.51688  0.14184  0.35417  1.0000
  I   I340      1.0  0.55769  0.45339  0.65940  1.0000
  I   I341      1.0  0.20119  0.78370  0.09368  1.0000
  I   I342      1.0  0.32151  0.10555  0.53571  1.0000
  I   I343      1.0  0.06073  0.89211  0.76565  1.0000
  I   I344      1.0  0.22415  0.55322  0.24324  1.0000
  I   I345      1.0  0.21608  0.96448  0.95198  1.0000
  I   I346      1.0  0.34883  0.10613  0.86481  1.0000
  I   I347      1.0  0.90983  0.75992  0.12867  1.0000
  I   I348      1.0  0.23851  0.67929  0.60908  1.0000
  I   I349      1.0  0.42774  0.81834  0.12841  1.0000
  I   I350      1.0  0.27000  0.40866  0.44228  1.0000
  I   I351      1.0  0.12193  0.97334  0.69742  1.0000
  I   I352      1.0  0.84502  0.62149  0.66889  1.0000
  I   I353      1.0  0.95015  0.60409  0.03248  1.0000
  I   I354      1.0  0.49349  0.28130  0.54870  1.0000
  I   I355      1.0  0.84562  0.91350  0.49281  1.0000
  I   I356      1.0  0.19304  0.12323  0.63426  1.0000
  I   I357      1.0  0.83686  0.19625  0.24238  1.0000
  I   I358      1.0  0.30344  0.81170  0.62806  1.0000
  I   I359      1.0  0.74377  0.88367  0.08422  1.0000
  I   I360      1.0  0.90847  0.96900  0.07597  1.0000
  I   I361      1.0  0.15137  0.65560  0.74061  1.0000
  I   I362      1.0  0.23422  0.41239  0.63405  1.0000
  I   I363      1.0  0.98188  0.21066  0.26045  1.0000
  I   I364      1.0  0.97922  0.40220  0.39371  1.0000
  I   I365      1.0  0.57828  0.49430  0.24107  1.0000
  I   I366      1.0  0.04556  0.92001  0.19176  1.0000
  I   I367      1.0  0.30633  0.90388  0.29352  1.0000
  I   I368      1.0  0.72191  0.35382  0.68588  1.0000
  I   I369      1.0  0.68408  0.06104  0.17043  1.0000
  I   I370      1.0  0.65732  0.76565  0.74070  1.0000
  I   I371      1.0  0.88221  0.43045  0.67176  1.0000
  I   I372      1.0  0.03250  0.51549  0.35934  1.0000
  I   I373      1.0  0.01738  0.33595  0.60188  1.0000
  I   I374      1.0  0.35482  0.42915  0.72845  1.0000
  I   I375      1.0  0.48319  0.36081  0.13155  1.0000
  I   I376      1.0  0.73916  0.76675  0.46745  1.0000
  I   I377      1.0  0.45807  0.67579  0.51761  1.0000
  I   I378      1.0  0.76276  0.96438  0.88066  1.0000
  I   I379      1.0  0.32767  0.70970  0.79559  1.0000
  I   I380      1.0  0.86741  0.20373  0.64190  1.0000
  I   I381      1.0  0.87106  0.64755  0.14074  1.0000
  I   I382      1.0  0.48927  0.46622  0.47384  1.0000
  I   I383      1.0  0.16997  0.15959  0.88395  1.0000
  I   I384      1.0  0.94936  0.21040  0.94530  1.0000
