data_image0
_chemical_formula_structural       Ti96I384
_chemical_formula_sum              "Ti96 I384"
_cell_length_a       35.329
_cell_length_b       35.0159
_cell_length_c       22.1136
_cell_angle_alpha    88.7757
_cell_angle_beta     88.7757
_cell_angle_gamma    62.1586

_space_group_name_H-M_alt    "P 1"
_space_group_IT_number       1

loop_
  _space_group_symop_operation_xyz
  'x, y, z'

loop_
  _atom_site_type_symbol
  _atom_site_label
  _atom_site_symmetry_multiplicity
  _atom_site_fract_x
  _atom_site_fract_y
  _atom_site_fract_z
  _atom_site_occupancy
  Ti  Ti1       1.0  0.15316  0.09545  0.24534  1.0000
  Ti  Ti2       1.0  0.15570  0.09719  0.59560  1.0000
  Ti  Ti3       1.0  0.15871  0.10265  0.91980  1.0000
  Ti  Ti4       1.0  0.16176  0.35249  0.25268  1.0000
  Ti  Ti5       1.0  0.16588  0.34512  0.57598  1.0000
  Ti  Ti6       1.0  0.15945  0.35075  0.92111  1.0000
  Ti  Ti7       1.0  0.16356  0.58193  0.24833  1.0000
  Ti  Ti8       1.0  0.16526  0.57791  0.57024  1.0000
  Ti  Ti9       1.0  0.16206  0.58164  0.91314  1.0000
  Ti  Ti10      1.0  0.16603  0.82906  0.26667  1.0000
  Ti  Ti11      1.0  0.16797  0.83063  0.59499  1.0000
  Ti  Ti12      1.0  0.15799  0.83479  0.92184  1.0000
  Ti  Ti13      1.0  0.41868  0.08196  0.23278  1.0000
  Ti  Ti14      1.0  0.41781  0.08760  0.57021  1.0000
  Ti  Ti15      1.0  0.42674  0.07864  0.89951  1.0000
  Ti  Ti16      1.0  0.40485  0.33990  0.23099  1.0000
  Ti  Ti17      1.0  0.39698  0.34864  0.56946  1.0000
  Ti  Ti18      1.0  0.40654  0.34161  0.90607  1.0000
  Ti  Ti19      1.0  0.40935  0.59013  0.24627  1.0000
  Ti  Ti20      1.0  0.41385  0.58637  0.57710  1.0000
  Ti  Ti21      1.0  0.40386  0.58983  0.91918  1.0000
  Ti  Ti22      1.0  0.39879  0.85662  0.26436  1.0000
  Ti  Ti23      1.0  0.40579  0.84562  0.60413  1.0000
  Ti  Ti24      1.0  0.39338  0.85359  0.93246  1.0000
  Ti  Ti25      1.0  0.66552  0.09089  0.25591  1.0000
  Ti  Ti26      1.0  0.66319  0.09214  0.59060  1.0000
  Ti  Ti27      1.0  0.65937  0.09037  0.92023  1.0000
  Ti  Ti28      1.0  0.65750  0.35319  0.25680  1.0000
  Ti  Ti29      1.0  0.65327  0.34910  0.59577  1.0000
  Ti  Ti30      1.0  0.64778  0.35233  0.91975  1.0000
  Ti  Ti31      1.0  0.65923  0.59064  0.24271  1.0000
  Ti  Ti32      1.0  0.66079  0.59471  0.58268  1.0000
  Ti  Ti33      1.0  0.65529  0.59604  0.91016  1.0000
  Ti  Ti34      1.0  0.65453  0.83633  0.24930  1.0000
  Ti  Ti35      1.0  0.65141  0.84148  0.58242  1.0000
  Ti  Ti36      1.0  0.65447  0.83940  0.91446  1.0000
  Ti  Ti37      1.0  0.90689  0.09142  0.23391  1.0000
  Ti  Ti38      1.0  0.90917  0.08662  0.56853  1.0000
  Ti  Ti39      1.0  0.90311  0.09309  0.89486  1.0000
  Ti  Ti40      1.0  0.90432  0.34367  0.25074  1.0000
  Ti  Ti41      1.0  0.90638  0.34134  0.57780  1.0000
  Ti  Ti42      1.0  0.90816  0.33936  0.91373  1.0000
  Ti  Ti43      1.0  0.91060  0.59308  0.26453  1.0000
  Ti  Ti44      1.0  0.90589  0.59180  0.59656  1.0000
  Ti  Ti45      1.0  0.90954  0.59510  0.92305  1.0000
  Ti  Ti46      1.0  0.90404  0.84303  0.26111  1.0000
  Ti  Ti47      1.0  0.91079  0.83978  0.58477  1.0000
  Ti  Ti48      1.0  0.91141  0.83640  0.92435  1.0000
  Ti  Ti49      1.0  0.08401  0.17002  0.07471  1.0000
  Ti  Ti50      1.0  0.09156  0.16923  0.41867  1.0000
  Ti  Ti51      1.0  0.08009  0.16960  0.75570  1.0000
  Ti  Ti52      1.0  0.09206  0.40560  0.08508  1.0000
  Ti  Ti53      1.0  0.09061  0.41221  0.41777  1.0000
  Ti  Ti54      1.0  0.09975  0.40188  0.75186  1.0000
  Ti  Ti55      1.0  0.09550  0.65315  0.08440  1.0000
  Ti  Ti56      1.0  0.09186  0.64329  0.40761  1.0000
  Ti  Ti57      1.0  0.10024  0.64711  0.74151  1.0000
  Ti  Ti58      1.0  0.09962  0.89791  0.09702  1.0000
  Ti  Ti59      1.0  0.10716  0.90383  0.42844  1.0000
  Ti  Ti60      1.0  0.10165  0.91080  0.76191  1.0000
  Ti  Ti61      1.0  0.35922  0.15413  0.06510  1.0000
  Ti  Ti62      1.0  0.35439  0.15092  0.39927  1.0000
  Ti  Ti63      1.0  0.35328  0.14934  0.74698  1.0000
  Ti  Ti64      1.0  0.33238  0.41104  0.07299  1.0000
  Ti  Ti65      1.0  0.33744  0.40796  0.39961  1.0000
  Ti  Ti66      1.0  0.33763  0.40774  0.73717  1.0000
  Ti  Ti67      1.0  0.34003  0.65861  0.08439  1.0000
  Ti  Ti68      1.0  0.35234  0.65465  0.42773  1.0000
  Ti  Ti69      1.0  0.34333  0.65668  0.74737  1.0000
  Ti  Ti70      1.0  0.32322  0.92382  0.10560  1.0000
  Ti  Ti71      1.0  0.33107  0.92238  0.43221  1.0000
  Ti  Ti72      1.0  0.33092  0.91822  0.76964  1.0000
  Ti  Ti73      1.0  0.59269  0.16368  0.08380  1.0000
  Ti  Ti74      1.0  0.59462  0.16292  0.42384  1.0000
  Ti  Ti75      1.0  0.58957  0.16241  0.75899  1.0000
  Ti  Ti76      1.0  0.58141  0.42150  0.09546  1.0000
  Ti  Ti77      1.0  0.59296  0.41114  0.42412  1.0000
  Ti  Ti78      1.0  0.58094  0.40836  0.75326  1.0000
  Ti  Ti79      1.0  0.59090  0.65751  0.07675  1.0000
  Ti  Ti80      1.0  0.58767  0.65739  0.42552  1.0000
  Ti  Ti81      1.0  0.58449  0.66099  0.75096  1.0000
  Ti  Ti82      1.0  0.59310  0.90733  0.08589  1.0000
  Ti  Ti83      1.0  0.59546  0.90218  0.41438  1.0000
  Ti  Ti84      1.0  0.59452  0.90748  0.74097  1.0000
  Ti  Ti85      1.0  0.83933  0.15440  0.05817  1.0000
  Ti  Ti86      1.0  0.84313  0.15576  0.39818  1.0000
  Ti  Ti87      1.0  0.83728  0.16446  0.73010  1.0000
  Ti  Ti88      1.0  0.83828  0.41193  0.08662  1.0000
  Ti  Ti89      1.0  0.83835  0.41414  0.40978  1.0000
  Ti  Ti90      1.0  0.84613  0.40772  0.74503  1.0000
  Ti  Ti91      1.0  0.84751  0.65633  0.09404  1.0000
  Ti  Ti92      1.0  0.84357  0.65630  0.42597  1.0000
  Ti  Ti93      1.0  0.84032  0.65447  0.76196  1.0000
  Ti  Ti94      1.0  0.83592  0.90290  0.08717  1.0000
  Ti  Ti95      1.0  0.83031  0.91114  0.42230  1.0000
  Ti  Ti96      1.0  0.83850  0.89794  0.76009  1.0000
  I   I1        1.0  0.07535  0.13272  0.30351  1.0000
  I   I2        1.0  0.07032  0.12355  0.66461  1.0000
  I   I3        1.0  0.07326  0.12734  0.98652  1.0000
  I   I4        1.0  0.07676  0.37783  0.31001  1.0000
  I   I5        1.0  0.08938  0.35797  0.65333  1.0000
  I   I6        1.0  0.08433  0.36443  0.98927  1.0000
  I   I7        1.0  0.07871  0.61794  0.30159  1.0000
  I   I8        1.0  0.08757  0.61574  0.63004  1.0000
  I   I9        1.0  0.08326  0.61396  0.97303  1.0000
  I   I10       1.0  0.08676  0.86760  0.33369  1.0000
  I   I11       1.0  0.08551  0.87173  0.66599  1.0000
  I   I12       1.0  0.07555  0.86493  0.99912  1.0000
  I   I13       1.0  0.33920  0.11883  0.29948  1.0000
  I   I14       1.0  0.33088  0.12598  0.63503  1.0000
  I   I15       1.0  0.33860  0.11801  0.96917  1.0000
  I   I16       1.0  0.31803  0.37706  0.29619  1.0000
  I   I17       1.0  0.31579  0.37920  0.62793  1.0000
  I   I18       1.0  0.32232  0.37573  0.97124  1.0000
  I   I19       1.0  0.32765  0.63068  0.31656  1.0000
  I   I20       1.0  0.31971  0.63564  0.64250  1.0000
  I   I21       1.0  0.31545  0.63744  0.96541  1.0000
  I   I22       1.0  0.31951  0.88469  0.33387  1.0000
  I   I23       1.0  0.32310  0.88258  0.66244  1.0000
  I   I24       1.0  0.31261  0.88010  0.99815  1.0000
  I   I25       1.0  0.57913  0.12955  0.32368  1.0000
  I   I26       1.0  0.58218  0.12379  0.66059  1.0000
  I   I27       1.0  0.57467  0.12839  0.98577  1.0000
  I   I28       1.0  0.57387  0.38218  0.31506  1.0000
  I   I29       1.0  0.56377  0.37584  0.64621  1.0000
  I   I30       1.0  0.56578  0.38082  0.99115  1.0000
  I   I31       1.0  0.57190  0.62352  0.30922  1.0000
  I   I32       1.0  0.58017  0.61866  0.64284  1.0000
  I   I33       1.0  0.57572  0.62598  0.96731  1.0000
  I   I34       1.0  0.56500  0.87718  0.30858  1.0000
  I   I35       1.0  0.56523  0.88210  0.62929  1.0000
  I   I36       1.0  0.56875  0.88268  0.96407  1.0000
  I   I37       1.0  0.82107  0.12282  0.28874  1.0000
  I   I38       1.0  0.81538  0.13109  0.63346  1.0000
  I   I39       1.0  0.81933  0.13029  0.95744  1.0000
  I   I40       1.0  0.82565  0.37557  0.31320  1.0000
  I   I41       1.0  0.82611  0.37558  0.64685  1.0000
  I   I42       1.0  0.82664  0.38013  0.98259  1.0000
  I   I43       1.0  0.82944  0.61662  0.33171  1.0000
  I   I44       1.0  0.82663  0.62456  0.65476  1.0000
  I   I45       1.0  0.83447  0.61470  0.99676  1.0000
  I   I46       1.0  0.81361  0.87873  0.31450  1.0000
  I   I47       1.0  0.83227  0.85996  0.64674  1.0000
  I   I48       1.0  0.82741  0.86297  0.97851  1.0000
  I   I49       1.0  0.11711  0.18065  0.18057  1.0000
  I   I50       1.0  0.12761  0.18771  0.51245  1.0000
  I   I51       1.0  0.12127  0.18440  0.84958  1.0000
  I   I52       1.0  0.11845  0.43730  0.18231  1.0000
  I   I53       1.0  0.11503  0.44140  0.51909  1.0000
  I   I54       1.0  0.11921  0.43057  0.85884  1.0000
  I   I55       1.0  0.13199  0.66441  0.18171  1.0000
  I   I56       1.0  0.13176  0.66297  0.50610  1.0000
  I   I57       1.0  0.12594  0.66933  0.84262  1.0000
  I   I58       1.0  0.12605  0.91894  0.20083  1.0000
  I   I59       1.0  0.14304  0.91354  0.52919  1.0000
  I   I60       1.0  0.13169  0.92368  0.86731  1.0000
  I   I61       1.0  0.37645  0.17080  0.17580  1.0000
  I   I62       1.0  0.37886  0.16982  0.50383  1.0000
  I   I63       1.0  0.38470  0.16948  0.84574  1.0000
  I   I64       1.0  0.36823  0.42670  0.16982  1.0000
  I   I65       1.0  0.36573  0.43420  0.51393  1.0000
  I   I66       1.0  0.37097  0.42550  0.84525  1.0000
  I   I67       1.0  0.37162  0.67511  0.19026  1.0000
  I   I68       1.0  0.38569  0.67166  0.53211  1.0000
  I   I69       1.0  0.38778  0.66778  0.86271  1.0000
  I   I70       1.0  0.35996  0.94057  0.20061  1.0000
  I   I71       1.0  0.36977  0.93524  0.54870  1.0000
  I   I72       1.0  0.36134  0.93407  0.87216  1.0000
  I   I73       1.0  0.63491  0.17455  0.18995  1.0000
  I   I74       1.0  0.62649  0.17933  0.53118  1.0000
  I   I75       1.0  0.62260  0.18034  0.86461  1.0000
  I   I76       1.0  0.61211  0.44127  0.18819  1.0000
  I   I77       1.0  0.62941  0.42808  0.52536  1.0000
  I   I78       1.0  0.61881  0.43324  0.85905  1.0000
  I   I79       1.0  0.62280  0.67242  0.18013  1.0000
  I   I80       1.0  0.61224  0.68429  0.51654  1.0000
  I   I81       1.0  0.61778  0.67854  0.84444  1.0000
  I   I82       1.0  0.62579  0.92522  0.18578  1.0000
  I   I83       1.0  0.62097  0.92765  0.52273  1.0000
  I   I84       1.0  0.62649  0.92392  0.84923  1.0000
  I   I85       1.0  0.87390  0.17533  0.16377  1.0000
  I   I86       1.0  0.87270  0.16688  0.50856  1.0000
  I   I87       1.0  0.87542  0.17401  0.83636  1.0000
  I   I88       1.0  0.87373  0.42764  0.19167  1.0000
  I   I89       1.0  0.87826  0.42773  0.51676  1.0000
  I   I90       1.0  0.87920  0.42531  0.84285  1.0000
  I   I91       1.0  0.88112  0.67687  0.18771  1.0000
  I   I92       1.0  0.88412  0.67657  0.52129  1.0000
  I   I93       1.0  0.87299  0.67893  0.86644  1.0000
  I   I94       1.0  0.85855  0.92273  0.19591  1.0000
  I   I95       1.0  0.85660  0.92630  0.53359  1.0000
  I   I96       1.0  0.86566  0.91710  0.86442  1.0000
  I   I97       1.0  0.17324  0.14127  0.02050  1.0000
  I   I98       1.0  0.16844  0.13520  0.34533  1.0000
  I   I99       1.0  0.16627  0.13215  0.69350  1.0000
  I   I100      1.0  0.18073  0.38146  0.02214  1.0000
  I   I101      1.0  0.17418  0.38349  0.35727  1.0000
  I   I102      1.0  0.18440  0.37843  0.68638  1.0000
  I   I103      1.0  0.17926  0.61477  0.02035  1.0000
  I   I104      1.0  0.17784  0.61512  0.35605  1.0000
  I   I105      1.0  0.18213  0.60659  0.68597  1.0000
  I   I106      1.0  0.18145  0.86132  0.03056  1.0000
  I   I107      1.0  0.19222  0.86019  0.36380  1.0000
  I   I108      1.0  0.19087  0.85513  0.70028  1.0000
  I   I109      1.0  0.43939  0.11748  0.99969  1.0000
  I   I110      1.0  0.44353  0.11975  0.32873  1.0000
  I   I111      1.0  0.43684  0.12232  0.66643  1.0000
  I   I112      1.0  0.41943  0.36670  0.01239  1.0000
  I   I113      1.0  0.42806  0.35900  0.34307  1.0000
  I   I114      1.0  0.42285  0.37002  0.68717  1.0000
  I   I115      1.0  0.42237  0.61982  0.03313  1.0000
  I   I116      1.0  0.42966  0.61559  0.35597  1.0000
  I   I117      1.0  0.42181  0.62558  0.69051  1.0000
  I   I118      1.0  0.40815  0.88306  0.04613  1.0000
  I   I119      1.0  0.41153  0.89395  0.36980  1.0000
  I   I120      1.0  0.41646  0.88313  0.70736  1.0000
  I   I121      1.0  0.67981  0.11837  0.02395  1.0000
  I   I122      1.0  0.68060  0.12130  0.35611  1.0000
  I   I123      1.0  0.68065  0.11808  0.70261  1.0000
  I   I124      1.0  0.66960  0.38344  0.02013  1.0000
  I   I125      1.0  0.67612  0.38287  0.36040  1.0000
  I   I126      1.0  0.65852  0.39348  0.68618  1.0000
  I   I127      1.0  0.67299  0.63198  0.01671  1.0000
  I   I128      1.0  0.67253  0.62216  0.35015  1.0000
  I   I129      1.0  0.66802  0.63720  0.67458  1.0000
  I   I130      1.0  0.67824  0.86644  0.01858  1.0000
  I   I131      1.0  0.67852  0.86350  0.35540  1.0000
  I   I132      1.0  0.67744  0.86933  0.68422  1.0000
  I   I133      1.0  0.93389  0.10530  0.00090  1.0000
  I   I134      1.0  0.92750  0.10667  0.34270  1.0000
  I   I135      1.0  0.92164  0.11949  0.67025  1.0000
  I   I136      1.0  0.92147  0.37537  0.01394  1.0000
  I   I137      1.0  0.92456  0.37714  0.35356  1.0000
  I   I138      1.0  0.92884  0.36822  0.68925  1.0000
  I   I139      1.0  0.93674  0.61596  0.03147  1.0000
  I   I140      1.0  0.92923  0.62019  0.36272  1.0000
  I   I141      1.0  0.92828  0.61771  0.70461  1.0000
  I   I142      1.0  0.91663  0.87875  0.02518  1.0000
  I   I143      1.0  0.91099  0.88649  0.36236  1.0000
  I   I144      1.0  0.91902  0.88046  0.69405  1.0000
  I   I145      1.0  0.12002  0.08191  0.14578  1.0000
  I   I146      1.0  0.11772  0.08619  0.49268  1.0000
  I   I147      1.0  0.11805  0.08825  0.82286  1.0000
  I   I148      1.0  0.13445  0.32591  0.15288  1.0000
  I   I149      1.0  0.12822  0.32798  0.47785  1.0000
  I   I150      1.0  0.13244  0.31834  0.82393  1.0000
  I   I151      1.0  0.13462  0.56519  0.13954  1.0000
  I   I152      1.0  0.14284  0.55392  0.46704  1.0000
  I   I153      1.0  0.13024  0.56352  0.81462  1.0000
  I   I154      1.0  0.12358  0.81924  0.16674  1.0000
  I   I155      1.0  0.12969  0.82162  0.49060  1.0000
  I   I156      1.0  0.12445  0.82369  0.81806  1.0000
  I   I157      1.0  0.38689  0.06573  0.12868  1.0000
  I   I158      1.0  0.39059  0.06508  0.46020  1.0000
  I   I159      1.0  0.39454  0.06305  0.79404  1.0000
  I   I160      1.0  0.36663  0.32416  0.12920  1.0000
  I   I161      1.0  0.37461  0.32698  0.46326  1.0000
  I   I162      1.0  0.36391  0.32529  0.79207  1.0000
  I   I163      1.0  0.37828  0.56423  0.14385  1.0000
  I   I164      1.0  0.38675  0.56599  0.47410  1.0000
  I   I165      1.0  0.36801  0.57587  0.81378  1.0000
  I   I166      1.0  0.36292  0.83619  0.16928  1.0000
  I   I167      1.0  0.37498  0.83758  0.48892  1.0000
  I   I168      1.0  0.36525  0.83416  0.82467  1.0000
  I   I169      1.0  0.61869  0.08320  0.15413  1.0000
  I   I170      1.0  0.61898  0.08319  0.48951  1.0000
  I   I171      1.0  0.61167  0.08578  0.82922  1.0000
  I   I172      1.0  0.63298  0.33200  0.14528  1.0000
  I   I173      1.0  0.62573  0.33014  0.48393  1.0000
  I   I174      1.0  0.62716  0.32775  0.81257  1.0000
  I   I175      1.0  0.62764  0.56921  0.13301  1.0000
  I   I176      1.0  0.61399  0.58294  0.49139  1.0000
  I   I177      1.0  0.62771  0.57574  0.80404  1.0000
  I   I178      1.0  0.61879  0.82488  0.14474  1.0000
  I   I179      1.0  0.62644  0.82045  0.47280  1.0000
  I   I180      1.0  0.62655  0.82114  0.80693  1.0000
  I   I181      1.0  0.86969  0.07645  0.12167  1.0000
  I   I182      1.0  0.86601  0.07285  0.47268  1.0000
  I   I183      1.0  0.85559  0.08684  0.79754  1.0000
  I   I184      1.0  0.86350  0.33151  0.15151  1.0000
  I   I185      1.0  0.86320  0.33130  0.48124  1.0000
  I   I186      1.0  0.86463  0.33130  0.82356  1.0000
  I   I187      1.0  0.87556  0.57172  0.16545  1.0000
  I   I188      1.0  0.88290  0.57127  0.48710  1.0000
  I   I189      1.0  0.87613  0.57508  0.82635  1.0000
  I   I190      1.0  0.88677  0.81645  0.15324  1.0000
  I   I191      1.0  0.88769  0.82123  0.47759  1.0000
  I   I192      1.0  0.88990  0.81093  0.81280  1.0000
  I   I193      1.0  0.22869  0.06741  0.19262  1.0000
  I   I194      1.0  0.23105  0.08123  0.54350  1.0000
  I   I195      1.0  0.22784  0.08019  0.85485  1.0000
  I   I196      1.0  0.23780  0.33254  0.20561  1.0000
  I   I197      1.0  0.23514  0.33766  0.52326  1.0000
  I   I198      1.0  0.23325  0.33238  0.86326  1.0000
  I   I199      1.0  0.24012  0.56275  0.19907  1.0000
  I   I200      1.0  0.23921  0.56112  0.53091  1.0000
  I   I201      1.0  0.23762  0.56039  0.85859  1.0000
  I   I202      1.0  0.24359  0.79965  0.21784  1.0000
  I   I203      1.0  0.24625  0.79949  0.55151  1.0000
  I   I204      1.0  0.24162  0.80330  0.89201  1.0000
  I   I205      1.0  0.49196  0.06262  0.18360  1.0000
  I   I206      1.0  0.49741  0.05535  0.53621  1.0000
  I   I207      1.0  0.50339  0.05510  0.86034  1.0000
  I   I208      1.0  0.48231  0.31738  0.19582  1.0000
  I   I209      1.0  0.47665  0.32571  0.54032  1.0000
  I   I210      1.0  0.48244  0.32213  0.86884  1.0000
  I   I211      1.0  0.48302  0.57212  0.19829  1.0000
  I   I212      1.0  0.49302  0.55184  0.54810  1.0000
  I   I213      1.0  0.47646  0.56077  0.86663  1.0000
  I   I214      1.0  0.47210  0.84215  0.21448  1.0000
  I   I215      1.0  0.47850  0.82962  0.54785  1.0000
  I   I216      1.0  0.46841  0.82609  0.88459  1.0000
  I   I217      1.0  0.74552  0.05792  0.22503  1.0000
  I   I218      1.0  0.73738  0.07069  0.54954  1.0000
  I   I219      1.0  0.73815  0.05908  0.88047  1.0000
  I   I220      1.0  0.73278  0.32732  0.21090  1.0000
  I   I221      1.0  0.73080  0.31940  0.55097  1.0000
  I   I222      1.0  0.72421  0.33593  0.87802  1.0000
  I   I223      1.0  0.73335  0.58217  0.20444  1.0000
  I   I224      1.0  0.73047  0.58635  0.53139  1.0000
  I   I225      1.0  0.73045  0.58820  0.87750  1.0000
  I   I226      1.0  0.73145  0.81204  0.21023  1.0000
  I   I227      1.0  0.72814  0.82021  0.54414  1.0000
  I   I228      1.0  0.73554  0.81623  0.88669  1.0000
  I   I229      1.0  0.97646  0.07595  0.17889  1.0000
  I   I230      1.0  0.98287  0.07522  0.52458  1.0000
  I   I231      1.0  0.97930  0.07341  0.85067  1.0000
  I   I232      1.0  0.98311  0.31631  0.20676  1.0000
  I   I233      1.0  0.98305  0.32125  0.54177  1.0000
  I   I234      1.0  0.98643  0.31436  0.87983  1.0000
  I   I235      1.0  0.98669  0.56831  0.21612  1.0000
  I   I236      1.0  0.98481  0.55764  0.55411  1.0000
  I   I237      1.0  0.98523  0.57807  0.88126  1.0000
  I   I238      1.0  0.98099  0.82481  0.22202  1.0000
  I   I239      1.0  0.98127  0.83902  0.54780  1.0000
  I   I240      1.0  0.98380  0.83001  0.88692  1.0000
  I   I241      1.0  0.18216  0.02208  0.30574  1.0000
  I   I242      1.0  0.18771  0.02115  0.64446  1.0000
  I   I243      1.0  0.18202  0.02415  0.96403  1.0000
  I   I244      1.0  0.19761  0.27265  0.30010  1.0000
  I   I245      1.0  0.20350  0.26699  0.61572  1.0000
  I   I246      1.0  0.20640  0.26714  0.94682  1.0000
  I   I247      1.0  0.18505  0.50256  0.28672  1.0000
  I   I248      1.0  0.18169  0.50503  0.62383  1.0000
  I   I249      1.0  0.18267  0.50560  0.95774  1.0000
  I   I250      1.0  0.18664  0.74860  0.28798  1.0000
  I   I251      1.0  0.18937  0.75076  0.62974  1.0000
  I   I252      1.0  0.17921  0.75934  0.96772  1.0000
  I   I253      1.0  0.43030  0.00971  0.28576  1.0000
  I   I254      1.0  0.43546  0.01352  0.62078  1.0000
  I   I255      1.0  0.44081  0.00639  0.95105  1.0000
  I   I256      1.0  0.41969  0.26522  0.26748  1.0000
  I   I257      1.0  0.41514  0.27131  0.61001  1.0000
  I   I258      1.0  0.41740  0.26680  0.93488  1.0000
  I   I259      1.0  0.42268  0.51607  0.28793  1.0000
  I   I260      1.0  0.42760  0.51757  0.63751  1.0000
  I   I261      1.0  0.42004  0.51967  0.97646  1.0000
  I   I262      1.0  0.42211  0.77665  0.30414  1.0000
  I   I263      1.0  0.42648  0.76734  0.63540  1.0000
  I   I264      1.0  0.40918  0.77474  0.97044  1.0000
  I   I265      1.0  0.67194  0.01537  0.29632  1.0000
  I   I266      1.0  0.67938  0.01508  0.62861  1.0000
  I   I267      1.0  0.67181  0.01247  0.95077  1.0000
  I   I268      1.0  0.67973  0.27518  0.29460  1.0000
  I   I269      1.0  0.67648  0.27244  0.64039  1.0000
  I   I270      1.0  0.68498  0.27115  0.96599  1.0000
  I   I271      1.0  0.68218  0.51198  0.27245  1.0000
  I   I272      1.0  0.69051  0.51515  0.62723  1.0000
  I   I273      1.0  0.67190  0.51863  0.95125  1.0000
  I   I274      1.0  0.66706  0.76314  0.28912  1.0000
  I   I275      1.0  0.67751  0.76653  0.62916  1.0000
  I   I276      1.0  0.67036  0.77057  0.97649  1.0000
  I   I277      1.0  0.93035  0.01132  0.25770  1.0000
  I   I278      1.0  0.92438  0.00786  0.59983  1.0000
  I   I279      1.0  0.92892  0.01046  0.92044  1.0000
  I   I280      1.0  0.92370  0.26930  0.30187  1.0000
  I   I281      1.0  0.92159  0.26546  0.61354  1.0000
  I   I282      1.0  0.92411  0.26232  0.95892  1.0000
  I   I283      1.0  0.93960  0.51364  0.30086  1.0000
  I   I284      1.0  0.92914  0.51344  0.64767  1.0000
  I   I285      1.0  0.94037  0.51556  0.96792  1.0000
  I   I286      1.0  0.92897  0.76673  0.30611  1.0000
  I   I287      1.0  0.94436  0.76026  0.62513  1.0000
  I   I288      1.0  0.94205  0.75903  0.97563  1.0000
  I   I289      1.0  0.01198  0.18093  0.13308  1.0000
  I   I290      1.0  0.01376  0.18802  0.45937  1.0000
  I   I291      1.0  0.00632  0.19008  0.80432  1.0000
  I   I292      1.0  0.01565  0.42876  0.12815  1.0000
  I   I293      1.0  0.01949  0.41858  0.46067  1.0000
  I   I294      1.0  0.02280  0.42183  0.78653  1.0000
  I   I295      1.0  0.02294  0.66304  0.12775  1.0000
  I   I296      1.0  0.02444  0.64600  0.45783  1.0000
  I   I297      1.0  0.02344  0.66529  0.77509  1.0000
  I   I298      1.0  0.01701  0.92646  0.13340  1.0000
  I   I299      1.0  0.02960  0.93865  0.46812  1.0000
  I   I300      1.0  0.02065  0.94348  0.79778  1.0000
  I   I301      1.0  0.28024  0.17461  0.10567  1.0000
  I   I302      1.0  0.27656  0.17470  0.44290  1.0000
  I   I303      1.0  0.27837  0.16650  0.79086  1.0000
  I   I304      1.0  0.25437  0.43369  0.10743  1.0000
  I   I305      1.0  0.26103  0.43291  0.44736  1.0000
  I   I306      1.0  0.25918  0.43516  0.77855  1.0000
  I   I307      1.0  0.26317  0.67780  0.12624  1.0000
  I   I308      1.0  0.27393  0.68168  0.46549  1.0000
  I   I309      1.0  0.26804  0.67573  0.79827  1.0000
  I   I310      1.0  0.24998  0.93936  0.14774  1.0000
  I   I311      1.0  0.26144  0.92588  0.48249  1.0000
  I   I312      1.0  0.25155  0.94039  0.81034  1.0000
  I   I313      1.0  0.51547  0.19276  0.13290  1.0000
  I   I314      1.0  0.51533  0.19580  0.47116  1.0000
  I   I315      1.0  0.50663  0.19719  0.79388  1.0000
  I   I316      1.0  0.51011  0.42740  0.14165  1.0000
  I   I317      1.0  0.51466  0.42977  0.46024  1.0000
  I   I318      1.0  0.51108  0.42541  0.81056  1.0000
  I   I319      1.0  0.51777  0.67154  0.12334  1.0000
  I   I320      1.0  0.50672  0.68645  0.45158  1.0000
  I   I321      1.0  0.51475  0.67550  0.80511  1.0000
  I   I322      1.0  0.51224  0.93228  0.10828  1.0000
  I   I323      1.0  0.51202  0.93656  0.44644  1.0000
  I   I324      1.0  0.51791  0.92896  0.77224  1.0000
  I   I325      1.0  0.76681  0.18327  0.11445  1.0000
  I   I326      1.0  0.76241  0.18293  0.42798  1.0000
  I   I327      1.0  0.76212  0.19849  0.78226  1.0000
  I   I328      1.0  0.76233  0.43538  0.13228  1.0000
  I   I329      1.0  0.76404  0.44731  0.46268  1.0000
  I   I330      1.0  0.76807  0.43695  0.79651  1.0000
  I   I331      1.0  0.77120  0.68131  0.13269  1.0000
  I   I332      1.0  0.76962  0.68577  0.47857  1.0000
  I   I333      1.0  0.76378  0.68546  0.81010  1.0000
  I   I334      1.0  0.76351  0.90825  0.12609  1.0000
  I   I335      1.0  0.75752  0.92228  0.46012  1.0000
  I   I336      1.0  0.76353  0.90860  0.80047  1.0000
  I   I337      1.0  0.05985  0.24671  0.03017  1.0000
  I   I338      1.0  0.07083  0.24729  0.37037  1.0000
  I   I339      1.0  0.06205  0.24281  0.69357  1.0000
  I   I340      1.0  0.06713  0.47849  0.03019  1.0000
  I   I341      1.0  0.05871  0.49063  0.37599  1.0000
  I   I342      1.0  0.06854  0.47708  0.69990  1.0000
  I   I343      1.0  0.07450  0.72613  0.03284  1.0000
  I   I344      1.0  0.06001  0.72513  0.37881  1.0000
  I   I345      1.0  0.07847  0.72588  0.69297  1.0000
  I   I346      1.0  0.07951  0.97683  0.04947  1.0000
  I   I347      1.0  0.09363  0.97761  0.37663  1.0000
  I   I348      1.0  0.08387  0.98540  0.72244  1.0000
  I   I349      1.0  0.32931  0.23061  0.01444  1.0000
  I   I350      1.0  0.32278  0.22752  0.34884  1.0000
  I   I351      1.0  0.32624  0.23033  0.71291  1.0000
  I   I352      1.0  0.32207  0.48702  0.03439  1.0000
  I   I353      1.0  0.32073  0.48381  0.35817  1.0000
  I   I354      1.0  0.31647  0.48556  0.70008  1.0000
  I   I355      1.0  0.32294  0.73761  0.05674  1.0000
  I   I356      1.0  0.33707  0.73372  0.39745  1.0000
  I   I357      1.0  0.32404  0.73620  0.72626  1.0000
  I   I358      1.0  0.29848  0.99974  0.05800  1.0000
  I   I359      1.0  0.30036  0.00090  0.39221  1.0000
  I   I360      1.0  0.31741  0.99665  0.73356  1.0000
  I   I361      1.0  0.57576  0.24178  0.05096  1.0000
  I   I362      1.0  0.58346  0.23770  0.37882  1.0000
  I   I363      1.0  0.58080  0.23383  0.70500  1.0000
  I   I364      1.0  0.55548  0.49693  0.05202  1.0000
  I   I365      1.0  0.57114  0.48833  0.38149  1.0000
  I   I366      1.0  0.55190  0.48747  0.71353  1.0000
  I   I367      1.0  0.55951  0.73728  0.03377  1.0000
  I   I368      1.0  0.56739  0.73114  0.35599  1.0000
  I   I369      1.0  0.56354  0.73719  0.69867  1.0000
  I   I370      1.0  0.57310  0.98439  0.04051  1.0000
  I   I371      1.0  0.57096  0.97935  0.36970  1.0000
  I   I372      1.0  0.57486  0.98281  0.69797  1.0000
  I   I373      1.0  0.82932  0.23117  0.02758  1.0000
  I   I374      1.0  0.82729  0.22965  0.35573  1.0000
  I   I375      1.0  0.82774  0.23801  0.68260  1.0000
  I   I376      1.0  0.82880  0.48744  0.04770  1.0000
  I   I377      1.0  0.82581  0.48699  0.35958  1.0000
  I   I378      1.0  0.82053  0.48618  0.69861  1.0000
  I   I379      1.0  0.83527  0.73017  0.04227  1.0000
  I   I380      1.0  0.83126  0.72877  0.37557  1.0000
  I   I381      1.0  0.82831  0.73202  0.72401  1.0000
  I   I382      1.0  0.79904  0.98241  0.04902  1.0000
  I   I383      1.0  0.79684  0.99129  0.38877  1.0000
  I   I384      1.0  0.80420  0.97509  0.71980  1.0000
