data_image0
_chemical_formula_structural       Ti96I384
_chemical_formula_sum              "Ti96 I384"
_cell_length_a       81.7309
_cell_length_b       81.1995
_cell_length_c       39.6681
_cell_angle_alpha    88.7757
_cell_angle_beta     88.7757
_cell_angle_gamma    62.1586

_space_group_name_H-M_alt    "P 1"
_space_group_IT_number       1

loop_
  _space_group_symop_operation_xyz
  'x, y, z'

loop_
  _atom_site_type_symbol
  _atom_site_label
  _atom_site_symmetry_multiplicity
  _atom_site_fract_x
  _atom_site_fract_y
  _atom_site_fract_z
  _atom_site_occupancy
  Ti  Ti1       1.0  0.82941  0.12659  0.72490  1.0000
  Ti  Ti2       1.0  0.70007  0.35068  0.51121  1.0000
  Ti  Ti3       1.0  0.02615  0.98607  0.32642  1.0000
  Ti  Ti4       1.0  0.42450  0.78491  0.85661  1.0000
  Ti  Ti5       1.0  0.87274  0.33845  0.60597  1.0000
  Ti  Ti6       1.0  0.14992  0.03792  0.92977  1.0000
  Ti  Ti7       1.0  0.45102  0.51836  0.62679  1.0000
  Ti  Ti8       1.0  0.27428  0.70720  0.45272  1.0000
  Ti  Ti9       1.0  0.05525  0.05850  0.56555  1.0000
  Ti  Ti10      1.0  0.85853  0.20421  0.07893  1.0000
  Ti  Ti11      1.0  0.37643  0.76170  0.48316  1.0000
  Ti  Ti12      1.0  0.45138  0.10083  0.82456  1.0000
  Ti  Ti13      1.0  0.47388  0.59921  0.26431  1.0000
  Ti  Ti14      1.0  0.38517  0.77323  0.88494  1.0000
  Ti  Ti15      1.0  0.52142  0.45193  0.92843  1.0000
  Ti  Ti16      1.0  0.87965  0.84025  0.85379  1.0000
  Ti  Ti17      1.0  0.70955  0.99668  0.65185  1.0000
  Ti  Ti18      1.0  0.36529  0.45881  0.48947  1.0000
  Ti  Ti19      1.0  0.51471  0.99273  0.26675  1.0000
  Ti  Ti20      1.0  0.61945  0.80953  0.86134  1.0000
  Ti  Ti21      1.0  0.14451  0.52686  0.55264  1.0000
  Ti  Ti22      1.0  0.31257  0.33239  0.54656  1.0000
  Ti  Ti23      1.0  0.45585  0.91100  0.27047  1.0000
  Ti  Ti24      1.0  0.95540  0.25374  0.85995  1.0000
  Ti  Ti25      1.0  0.07941  0.98131  0.91259  1.0000
  Ti  Ti26      1.0  0.29660  0.54156  0.73547  1.0000
  Ti  Ti27      1.0  0.06020  0.77270  0.33608  1.0000
  Ti  Ti28      1.0  0.24309  0.30360  0.04268  1.0000
  Ti  Ti29      1.0  0.60662  0.75257  0.30342  1.0000
  Ti  Ti30      1.0  0.67073  0.45714  0.18318  1.0000
  Ti  Ti31      1.0  0.81423  0.99435  0.06182  1.0000
  Ti  Ti32      1.0  0.88553  0.40570  0.90745  1.0000
  Ti  Ti33      1.0  0.91187  0.05687  0.56769  1.0000
  Ti  Ti34      1.0  0.56339  0.67926  0.86779  1.0000
  Ti  Ti35      1.0  0.01300  0.34137  0.09107  1.0000
  Ti  Ti36      1.0  0.46175  0.66201  0.67254  1.0000
  Ti  Ti37      1.0  0.25381  0.97994  0.21503  1.0000
  Ti  Ti38      1.0  0.59258  0.64882  0.65496  1.0000
  Ti  Ti39      1.0  0.80611  0.19716  0.05899  1.0000
  Ti  Ti40      1.0  0.88619  0.97374  0.06722  1.0000
  Ti  Ti41      1.0  0.52743  0.71802  0.23734  1.0000
  Ti  Ti42      1.0  0.26556  0.69124  0.75286  1.0000
  Ti  Ti43      1.0  0.35175  0.73552  0.55166  1.0000
  Ti  Ti44      1.0  0.39053  0.42063  0.10772  1.0000
  Ti  Ti45      1.0  0.72849  0.32132  0.29784  1.0000
  Ti  Ti46      1.0  0.01272  0.61873  0.43657  1.0000
  Ti  Ti47      1.0  0.06218  0.66168  0.43007  1.0000
  Ti  Ti48      1.0  0.27392  0.11315  0.89265  1.0000
  Ti  Ti49      1.0  0.38905  0.84037  0.17102  1.0000
  Ti  Ti50      1.0  0.20868  0.47537  0.88131  1.0000
  Ti  Ti51      1.0  0.39945  0.96200  0.27521  1.0000
  Ti  Ti52      1.0  0.06759  0.32878  0.35194  1.0000
  Ti  Ti53      1.0  0.62856  0.53885  0.40396  1.0000
  Ti  Ti54      1.0  0.90066  0.90788  0.99265  1.0000
  Ti  Ti55      1.0  0.98695  0.70576  0.76203  1.0000
  Ti  Ti56      1.0  0.65338  0.33919  0.70847  1.0000
  Ti  Ti57      1.0  0.03531  0.05894  0.64446  1.0000
  Ti  Ti58      1.0  0.95291  0.73542  0.00360  1.0000
  Ti  Ti59      1.0  0.86628  0.88985  0.80440  1.0000
  Ti  Ti60      1.0  0.53658  0.98123  0.33221  1.0000
  Ti  Ti61      1.0  0.60492  0.25176  0.58577  1.0000
  Ti  Ti62      1.0  0.44579  0.57785  0.33454  1.0000
  Ti  Ti63      1.0  0.24609  0.45424  0.12567  1.0000
  Ti  Ti64      1.0  0.34696  0.43634  0.48309  1.0000
  Ti  Ti65      1.0  0.42201  0.26468  0.86377  1.0000
  Ti  Ti66      1.0  0.93039  0.16080  0.25276  1.0000
  Ti  Ti67      1.0  0.83761  0.84030  0.63521  1.0000
  Ti  Ti68      1.0  0.34131  0.30514  0.96515  1.0000
  Ti  Ti69      1.0  0.28418  0.54351  0.82978  1.0000
  Ti  Ti70      1.0  0.34239  0.93395  0.80837  1.0000
  Ti  Ti71      1.0  0.73833  0.49961  0.10121  1.0000
  Ti  Ti72      1.0  0.36220  0.85416  0.37307  1.0000
  Ti  Ti73      1.0  0.11649  0.96723  0.17650  1.0000
  Ti  Ti74      1.0  0.06698  0.97001  0.97495  1.0000
  Ti  Ti75      1.0  0.39517  0.80736  0.11386  1.0000
  Ti  Ti76      1.0  0.87428  0.57578  0.80835  1.0000
  Ti  Ti77      1.0  0.52472  0.47279  0.86217  1.0000
  Ti  Ti78      1.0  0.74769  0.39413  0.01761  1.0000
  Ti  Ti79      1.0  0.10967  0.76679  0.65627  1.0000
  Ti  Ti80      1.0  0.90269  0.70863  0.32687  1.0000
  Ti  Ti81      1.0  0.52411  0.40399  0.56586  1.0000
  Ti  Ti82      1.0  0.28026  0.93198  0.92163  1.0000
  Ti  Ti83      1.0  0.77841  0.31135  0.28936  1.0000
  Ti  Ti84      1.0  0.41947  0.67796  0.72018  1.0000
  Ti  Ti85      1.0  0.25073  0.99385  0.29010  1.0000
  Ti  Ti86      1.0  0.43682  0.48751  0.66007  1.0000
  Ti  Ti87      1.0  0.97982  0.85326  0.86741  1.0000
  Ti  Ti88      1.0  0.76949  0.06973  0.36222  1.0000
  Ti  Ti89      1.0  0.71914  0.17725  0.09634  1.0000
  Ti  Ti90      1.0  0.68405  0.01170  0.53885  1.0000
  Ti  Ti91      1.0  0.74215  0.41563  0.28332  1.0000
  Ti  Ti92      1.0  0.88978  0.21635  0.58978  1.0000
  Ti  Ti93      1.0  0.84646  0.50527  0.57823  1.0000
  Ti  Ti94      1.0  0.25281  0.09492  0.90372  1.0000
  Ti  Ti95      1.0  0.43750  0.83146  0.49564  1.0000
  Ti  Ti96      1.0  0.79760  0.05527  0.90169  1.0000
  I   I1        1.0  0.09861  0.65135  0.44696  1.0000
  I   I2        1.0  0.39137  0.97725  0.33458  1.0000
  I   I3        1.0  0.36387  0.83028  0.15786  1.0000
  I   I4        1.0  0.64912  0.53297  0.34754  1.0000
  I   I5        1.0  0.13772  0.01448  0.91560  1.0000
  I   I6        1.0  0.91090  0.87745  0.95779  1.0000
  I   I7        1.0  0.26663  0.69822  0.51325  1.0000
  I   I8        1.0  0.61957  0.34637  0.72034  1.0000
  I   I9        1.0  0.02656  0.04898  0.57943  1.0000
  I   I10       1.0  0.78751  0.02063  0.02530  1.0000
  I   I11       1.0  0.37588  0.73252  0.46386  1.0000
  I   I12       1.0  0.84733  0.33034  0.60279  1.0000
  I   I13       1.0  0.49116  0.59813  0.32004  1.0000
  I   I14       1.0  0.24681  0.48339  0.09803  1.0000
  I   I15       1.0  0.51050  0.49356  0.91133  1.0000
  I   I16       1.0  0.89081  0.96293  0.13619  1.0000
  I   I17       1.0  0.88444  0.24086  0.64134  1.0000
  I   I18       1.0  0.36008  0.49300  0.48024  1.0000
  I   I19       1.0  0.25729  0.42420  0.08928  1.0000
  I   I20       1.0  0.41126  0.75089  0.48661  1.0000
  I   I21       1.0  0.25814  0.74042  0.43207  1.0000
  I   I22       1.0  0.55684  0.40230  0.57539  1.0000
  I   I23       1.0  0.80685  0.05409  0.36916  1.0000
  I   I24       1.0  0.34001  0.90880  0.76597  1.0000
  I   I25       1.0  0.06451  0.00446  0.96687  1.0000
  I   I26       1.0  0.39903  0.84956  0.23468  1.0000
  I   I27       1.0  0.04474  0.32892  0.12238  1.0000
  I   I28       1.0  0.27820  0.28710  0.03228  1.0000
  I   I29       1.0  0.73535  0.37738  0.05742  1.0000
  I   I30       1.0  0.70827  0.44779  0.18053  1.0000
  I   I31       1.0  0.89416  0.74272  0.35342  1.0000
  I   I32       1.0  0.49631  0.42028  0.61383  1.0000
  I   I33       1.0  0.10038  0.73664  0.66611  1.0000
  I   I34       1.0  0.02446  0.30967  0.05676  1.0000
  I   I35       1.0  0.41642  0.68229  0.78811  1.0000
  I   I36       1.0  0.53844  0.70873  0.82857  1.0000
  I   I37       1.0  0.22633  0.98836  0.32329  1.0000
  I   I38       1.0  0.87683  0.19855  0.13673  1.0000
  I   I39       1.0  0.25256  0.01874  0.32795  1.0000
  I   I40       1.0  0.38509  0.43424  0.04651  1.0000
  I   I41       1.0  0.18503  0.51102  0.88028  1.0000
  I   I42       1.0  0.91907  0.97000  0.06786  1.0000
  I   I43       1.0  0.96206  0.74340  0.05953  1.0000
  I   I44       1.0  0.72165  0.31051  0.35897  1.0000
  I   I45       1.0  0.78477  0.27616  0.27154  1.0000
  I   I46       1.0  0.41266  0.84519  0.54633  1.0000
  I   I47       1.0  0.04658  0.69508  0.44777  1.0000
  I   I48       1.0  0.29321  0.07927  0.91971  1.0000
  I   I49       1.0  0.38085  0.87309  0.13724  1.0000
  I   I50       1.0  0.70596  0.37957  0.51652  1.0000
  I   I51       1.0  0.43355  0.94913  0.29963  1.0000
  I   I52       1.0  0.89026  0.69472  0.37543  1.0000
  I   I53       1.0  0.60040  0.57103  0.42005  1.0000
  I   I54       1.0  0.93473  0.89809  0.01887  1.0000
  I   I55       1.0  0.41626  0.52397  0.60242  1.0000
  I   I56       1.0  0.13956  0.52957  0.48670  1.0000
  I   I57       1.0  0.46526  0.80577  0.52812  1.0000
  I   I58       1.0  0.83833  0.18427  0.09253  1.0000
  I   I59       1.0  0.88183  0.85958  0.77075  1.0000
  I   I60       1.0  0.52439  0.98737  0.39273  1.0000
  I   I61       1.0  0.42719  0.56491  0.30093  1.0000
  I   I62       1.0  0.50137  0.57834  0.21532  1.0000
  I   I63       1.0  0.65415  0.79386  0.86775  1.0000
  I   I64       1.0  0.87929  0.83034  0.91468  1.0000
  I   I65       1.0  0.88956  0.94346  0.03890  1.0000
  I   I66       1.0  0.22444  0.32985  0.08110  1.0000
  I   I67       1.0  0.54165  0.01121  0.29582  1.0000
  I   I68       1.0  0.60675  0.83466  0.90802  1.0000
  I   I69       1.0  0.28072  0.57156  0.69874  1.0000
  I   I70       1.0  0.32980  0.96177  0.84581  1.0000
  I   I71       1.0  0.37560  0.98602  0.22970  1.0000
  I   I72       1.0  0.38917  0.84946  0.33370  1.0000
  I   I73       1.0  0.09481  0.76196  0.33373  1.0000
  I   I74       1.0  0.26578  0.54197  0.76141  1.0000
  I   I75       1.0  0.28128  0.51441  0.85236  1.0000
  I   I76       1.0  0.54425  0.46507  0.80722  1.0000
  I   I77       1.0  0.52011  0.44015  0.86411  1.0000
  I   I78       1.0  0.80392  0.96572  0.05588  1.0000
  I   I79       1.0  0.91142  0.07233  0.51144  1.0000
  I   I80       1.0  0.83596  0.10999  0.66381  1.0000
  I   I81       1.0  0.86801  0.38835  0.87905  1.0000
  I   I82       1.0  0.29317  0.90512  0.87403  1.0000
  I   I83       1.0  0.72049  0.29911  0.26257  1.0000
  I   I84       1.0  0.42351  0.69337  0.66648  1.0000
  I   I85       1.0  0.27266  0.96382  0.33432  1.0000
  I   I86       1.0  0.23385  0.27763  0.04205  1.0000
  I   I87       1.0  0.79078  0.17979  0.09138  1.0000
  I   I88       1.0  0.83108  0.21102  0.03026  1.0000
  I   I89       1.0  0.58617  0.66569  0.81855  1.0000
  I   I90       1.0  0.21150  0.45481  0.82887  1.0000
  I   I91       1.0  0.76488  0.40175  0.22888  1.0000
  I   I92       1.0  0.87452  0.23486  0.53766  1.0000
  I   I93       1.0  0.42170  0.41534  0.13434  1.0000
  I   I94       1.0  0.24316  0.12074  0.85612  1.0000
  I   I95       1.0  0.98966  0.65336  0.45598  1.0000
  I   I96       1.0  0.27851  0.35325  0.52683  1.0000
  I   I97       1.0  0.99717  0.00934  0.30190  1.0000
  I   I98       1.0  0.83587  0.15351  0.69493  1.0000
  I   I99       1.0  0.66587  0.36006  0.48724  1.0000
  I   I100      1.0  0.38281  0.76706  0.95142  1.0000
  I   I101      1.0  0.74391  0.09824  0.39381  1.0000
  I   I102      1.0  0.88021  0.34580  0.66722  1.0000
  I   I103      1.0  0.45348  0.46748  0.71634  1.0000
  I   I104      1.0  0.96341  0.69492  0.76027  1.0000
  I   I105      1.0  0.56571  0.70043  0.22948  1.0000
  I   I106      1.0  0.48394  0.09446  0.83349  1.0000
  I   I107      1.0  0.84339  0.24234  0.09395  1.0000
  I   I108      1.0  0.43007  0.11134  0.87629  1.0000
  I   I109      1.0  0.53392  0.43471  0.98376  1.0000
  I   I110      1.0  0.44971  0.54646  0.37497  1.0000
  I   I111      1.0  0.60387  0.82431  0.80275  1.0000
  I   I112      1.0  0.35198  0.40832  0.52933  1.0000
  I   I113      1.0  0.44396  0.26120  0.90862  1.0000
  I   I114      1.0  0.71597  0.98657  0.58254  1.0000
  I   I115      1.0  0.81801  0.87522  0.65089  1.0000
  I   I116      1.0  0.82615  0.83617  0.57825  1.0000
  I   I117      1.0  0.34317  0.28176  0.92117  1.0000
  I   I118      1.0  0.76493  0.08106  0.93231  1.0000
  I   I119      1.0  0.87285  0.83446  0.63437  1.0000
  I   I120      1.0  0.03871  0.65139  0.41308  1.0000
  I   I121      1.0  0.10421  0.98574  0.23179  1.0000
  I   I122      1.0  0.10878  0.96526  0.95503  1.0000
  I   I123      1.0  0.37753  0.83246  0.06458  1.0000
  I   I124      1.0  0.65988  0.47666  0.24162  1.0000
  I   I125      1.0  0.89646  0.57810  0.84655  1.0000
  I   I126      1.0  0.78174  0.37849  0.02876  1.0000
  I   I127      1.0  0.87902  0.06454  0.60560  1.0000
  I   I128      1.0  0.38905  0.74372  0.85336  1.0000
  I   I129      1.0  0.45357  0.89848  0.32720  1.0000
  I   I130      1.0  0.46910  0.68955  0.66285  1.0000
  I   I131      1.0  0.28241  0.96013  0.89114  1.0000
  I   I132      1.0  0.98777  0.33791  0.12425  1.0000
  I   I133      1.0  0.77639  0.22861  0.05000  1.0000
  I   I134      1.0  0.62680  0.65031  0.66514  1.0000
  I   I135      1.0  0.91811  0.15008  0.20092  1.0000
  I   I136      1.0  0.24386  0.71692  0.70870  1.0000
  I   I137      1.0  0.04430  0.36511  0.36448  1.0000
  I   I138      1.0  0.68918  0.18746  0.05329  1.0000
  I   I139      1.0  0.77095  0.39594  0.32118  1.0000
  I   I140      1.0  0.92843  0.15858  0.31619  1.0000
  I   I141      1.0  0.86140  0.52880  0.60003  1.0000
  I   I142      1.0  0.25951  0.11033  0.96704  1.0000
  I   I143      1.0  0.04866  0.97686  0.27838  1.0000
  I   I144      1.0  0.30958  0.30474  0.56995  1.0000
  I   I145      1.0  0.79917  0.14312  0.75546  1.0000
  I   I146      1.0  0.72453  0.33218  0.56188  1.0000
  I   I147      1.0  0.03584  0.01324  0.32794  1.0000
  I   I148      1.0  0.10383  0.31273  0.37227  1.0000
  I   I149      1.0  0.87240  0.35988  0.54964  1.0000
  I   I150      1.0  0.12385  0.06785  0.90073  1.0000
  I   I151      1.0  0.98126  0.72112  0.70243  1.0000
  I   I152      1.0  0.25347  0.69848  0.41267  1.0000
  I   I153      1.0  0.00464  0.09228  0.65721  1.0000
  I   I154      1.0  0.33905  0.77068  0.52677  1.0000
  I   I155      1.0  0.38376  0.77021  0.41995  1.0000
  I   I156      1.0  0.52013  0.95830  0.30041  1.0000
  I   I157      1.0  0.55962  0.44371  0.89410  1.0000
  I   I158      1.0  0.21165  0.45959  0.14403  1.0000
  I   I159      1.0  0.58360  0.28472  0.61890  1.0000
  I   I160      1.0  0.32303  0.42979  0.44776  1.0000
  I   I161      1.0  0.65473  0.04319  0.52150  1.0000
  I   I162      1.0  0.37657  0.42149  0.44473  1.0000
  I   I163      1.0  0.51219  0.01902  0.22146  1.0000
  I   I164      1.0  0.98788  0.60651  0.42645  1.0000
  I   I165      1.0  0.14937  0.55662  0.56675  1.0000
  I   I166      1.0  0.79188  0.06571  0.84083  1.0000
  I   I167      1.0  0.50232  0.40662  0.51887  1.0000
  I   I168      1.0  0.97667  0.22937  0.81767  1.0000
  I   I169      1.0  0.04883  0.97723  0.04124  1.0000
  I   I170      1.0  0.07657  0.93670  0.00392  1.0000
  I   I171      1.0  0.06993  0.73974  0.33883  1.0000
  I   I172      1.0  0.85017  0.56294  0.83818  1.0000
  I   I173      1.0  0.61616  0.74272  0.37001  1.0000
  I   I174      1.0  0.64287  0.46911  0.14260  1.0000
  I   I175      1.0  0.87407  0.01142  0.07525  1.0000
  I   I176      1.0  0.87557  0.44097  0.92800  1.0000
  I   I177      1.0  0.08955  0.77257  0.71107  1.0000
  I   I178      1.0  0.24491  0.94466  0.93069  1.0000
  I   I179      1.0  0.69524  0.35339  0.31462  1.0000
  I   I180      1.0  0.21424  0.99158  0.22015  1.0000
  I   I181      1.0  0.43333  0.12608  0.78227  1.0000
  I   I182      1.0  0.47599  0.50286  0.67674  1.0000
  I   I183      1.0  0.00780  0.84750  0.83098  1.0000
  I   I184      1.0  0.75357  0.07279  0.30492  1.0000
  I   I185      1.0  0.72418  0.14328  0.12507  1.0000
  I   I186      1.0  0.24203  0.68500  0.78284  1.0000
  I   I187      1.0  0.90992  0.18009  0.58191  1.0000
  I   I188      1.0  0.36418  0.44850  0.14447  1.0000
  I   I189      1.0  0.96245  0.88876  0.84981  1.0000
  I   I190      1.0  0.04084  0.60301  0.48244  1.0000
  I   I191      1.0  0.74303  0.99530  0.64953  1.0000
  I   I192      1.0  0.00890  0.98359  0.38561  1.0000
  I   I193      1.0  0.73883  0.38282  0.96637  1.0000
  I   I194      1.0  0.61596  0.78357  0.89904  1.0000
  I   I195      1.0  0.02771  0.95115  0.31185  1.0000
  I   I196      1.0  0.41540  0.78001  0.91875  1.0000
  I   I197      1.0  0.95448  0.70711  0.97031  1.0000
  I   I198      1.0  0.15087  0.04804  0.98846  1.0000
  I   I199      1.0  0.89288  0.38043  0.95354  1.0000
  I   I200      1.0  0.64638  0.37081  0.66614  1.0000
  I   I201      1.0  0.07105  0.02846  0.61788  1.0000
  I   I202      1.0  0.89801  0.86230  0.84189  1.0000
  I   I203      1.0  0.25295  0.57439  0.83165  1.0000
  I   I204      1.0  0.43783  0.07449  0.82398  1.0000
  I   I205      1.0  0.46032  0.63355  0.24831  1.0000
  I   I206      1.0  0.45837  0.78158  0.85698  1.0000
  I   I207      1.0  0.48929  0.46204  0.95163  1.0000
  I   I208      1.0  0.90757  0.80862  0.82814  1.0000
  I   I209      1.0  0.66105  0.99261  0.55698  1.0000
  I   I210      1.0  0.14356  0.74590  0.65700  1.0000
  I   I211      1.0  0.35925  0.94461  0.76240  1.0000
  I   I212      1.0  0.27039  0.42998  0.17375  1.0000
  I   I213      1.0  0.31050  0.51308  0.78952  1.0000
  I   I214      1.0  0.32357  0.35186  0.58999  1.0000
  I   I215      1.0  0.42635  0.93161  0.22847  1.0000
  I   I216      1.0  0.86771  0.49968  0.52525  1.0000
  I   I217      1.0  0.07071  0.95379  0.91530  1.0000
  I   I218      1.0  0.42442  0.78121  0.08210  1.0000
  I   I219      1.0  0.12728  0.93396  0.19479  1.0000
  I   I220      1.0  0.49154  0.48528  0.83055  1.0000
  I   I221      1.0  0.63703  0.73588  0.26413  1.0000
  I   I222      1.0  0.86069  0.60666  0.77310  1.0000
  I   I223      1.0  0.80870  0.99404  0.12978  1.0000
  I   I224      1.0  0.91282  0.40252  0.87062  1.0000
  I   I225      1.0  0.94273  0.02685  0.55964  1.0000
  I   I226      1.0  0.29839  0.70800  0.41150  1.0000
  I   I227      1.0  0.99694  0.36361  0.04150  1.0000
  I   I228      1.0  0.45622  0.67171  0.74418  1.0000
  I   I229      1.0  0.97703  0.74474  0.96918  1.0000
  I   I230      1.0  0.56988  0.66177  0.70541  1.0000
  I   I231      1.0  0.87819  0.21293  0.03046  1.0000
  I   I232      1.0  0.34789  0.78884  0.87910  1.0000
  I   I233      1.0  0.51721  0.69393  0.26578  1.0000
  I   I234      1.0  0.69844  0.02723  0.68986  1.0000
  I   I235      1.0  0.35770  0.70044  0.54974  1.0000
  I   I236      1.0  0.81453  0.50060  0.57443  1.0000
  I   I237      1.0  0.70944  0.41511  0.28228  1.0000
  I   I238      1.0  0.43377  0.81300  0.45014  1.0000
  I   I239      1.0  0.80256  0.02143  0.90251  1.0000
  I   I240      1.0  0.26453  0.06785  0.85808  1.0000
  I   I241      1.0  0.86294  0.11887  0.75060  1.0000
  I   I242      1.0  0.72376  0.33501  0.45892  1.0000
  I   I243      1.0  0.33733  0.28662  0.01730  1.0000
  I   I244      1.0  0.76520  0.04216  0.38028  1.0000
  I   I245      1.0  0.60000  0.53901  0.36829  1.0000
  I   I246      1.0  0.18347  0.00809  0.91800  1.0000
  I   I247      1.0  0.42626  0.52359  0.68585  1.0000
  I   I248      1.0  0.12423  0.51701  0.59908  1.0000
  I   I249      1.0  0.05277  0.04312  0.70514  1.0000
  I   I250      1.0  0.88798  0.90262  0.77093  1.0000
  I   I251      1.0  0.36306  0.79344  0.51091  1.0000
  I   I252      1.0  0.48405  0.00304  0.22835  1.0000
  I   I253      1.0  0.47180  0.56559  0.28482  1.0000
  I   I254      1.0  0.42024  0.82175  0.83751  1.0000
  I   I255      1.0  0.60326  0.27139  0.53460  1.0000
  I   I256      1.0  0.38581  0.28381  0.88029  1.0000
  I   I257      1.0  0.23510  0.01758  0.23209  1.0000
  I   I258      1.0  0.40200  0.43218  0.50477  1.0000
  I   I259      1.0  0.83529  0.82163  0.68816  1.0000
  I   I260      1.0  0.02646  0.61753  0.37136  1.0000
  I   I261      1.0  0.17264  0.49684  0.57605  1.0000
  I   I262      1.0  0.32984  0.32740  0.48488  1.0000
  I   I263      1.0  0.72229  0.52013  0.15536  1.0000
  I   I264      1.0  0.48998  0.63187  0.66831  1.0000
  I   I265      1.0  0.04639  0.99707  0.87255  1.0000
  I   I266      1.0  0.30802  0.54685  0.87300  1.0000
  I   I267      1.0  0.14614  0.97132  0.15115  1.0000
  I   I268      1.0  0.90564  0.19394  0.23837  1.0000
  I   I269      1.0  0.73708  0.43029  0.03114  1.0000
  I   I270      1.0  0.22929  0.31644  0.97784  1.0000
  I   I271      1.0  0.84541  0.99229  0.04204  1.0000
  I   I272      1.0  0.52783  0.37158  0.57009  1.0000
  I   I273      1.0  0.92040  0.07642  0.61010  1.0000
  I   I274      1.0  0.51676  0.74658  0.27529  1.0000
  I   I275      1.0  0.04625  0.78626  0.39107  1.0000
  I   I276      1.0  0.38770  0.67950  0.70826  1.0000
  I   I277      1.0  0.28849  0.90236  0.96782  1.0000
  I   I278      1.0  0.57541  0.66756  0.59534  1.0000
  I   I279      1.0  0.38478  0.39163  0.10020  1.0000
  I   I280      1.0  0.05632  0.31431  0.40208  1.0000
  I   I281      1.0  0.51960  0.72081  0.17239  1.0000
  I   I282      1.0  0.28394  0.70813  0.78280  1.0000
  I   I283      1.0  0.37289  0.74004  0.59761  1.0000
  I   I284      1.0  0.93320  0.27813  0.81789  1.0000
  I   I285      1.0  0.95802  0.83802  0.88140  1.0000
  I   I286      1.0  0.44988  0.85226  0.46213  1.0000
  I   I287      1.0  0.37185  0.85861  0.43692  1.0000
  I   I288      1.0  0.26574  0.14897  0.87195  1.0000
  I   I289      1.0  0.31995  0.74690  0.60408  1.0000
  I   I290      1.0  0.68108  0.02779  0.60287  1.0000
  I   I291      1.0  0.48865  0.90782  0.27848  1.0000
  I   I292      1.0  0.07359  0.33572  0.28957  1.0000
  I   I293      1.0  0.64671  0.55858  0.41640  1.0000
  I   I294      1.0  0.88004  0.93623  0.94104  1.0000
  I   I295      1.0  0.40205  0.49676  0.67870  1.0000
  I   I296      1.0  0.67544  0.35012  0.74844  1.0000
  I   I297      1.0  0.02612  0.07758  0.51768  1.0000
  I   I298      1.0  0.91686  0.75349  0.99884  1.0000
  I   I299      1.0  0.84331  0.88088  0.84252  1.0000
  I   I300      1.0  0.86696  0.47954  0.62100  1.0000
  I   I301      1.0  0.59290  0.22942  0.54964  1.0000
  I   I302      1.0  0.41930  0.59538  0.37710  1.0000
  I   I303      1.0  0.42953  0.23082  0.85180  1.0000
  I   I304      1.0  0.35585  0.45424  0.55245  1.0000
  I   I305      1.0  0.85998  0.82686  0.83568  1.0000
  I   I306      1.0  0.46923  0.49720  0.58236  1.0000
  I   I307      1.0  0.26161  0.95140  0.25966  1.0000
  I   I308      1.0  0.24133  0.47491  0.88523  1.0000
  I   I309      1.0  0.29645  0.67145  0.43181  1.0000
  I   I310      1.0  0.39593  0.80562  0.20409  1.0000
  I   I311      1.0  0.71629  0.51469  0.05134  1.0000
  I   I312      1.0  0.06632  0.66824  0.36402  1.0000
  I   I313      1.0  0.08608  0.98557  0.14400  1.0000
  I   I314      1.0  0.10142  0.99299  0.87811  1.0000
  I   I315      1.0  0.38093  0.78213  0.11569  1.0000
  I   I316      1.0  0.88721  0.54943  0.76898  1.0000
  I   I317      1.0  0.96026  0.16570  0.25158  1.0000
  I   I318      1.0  0.57147  0.76157  0.29790  1.0000
  I   I319      1.0  0.11080  0.80051  0.66569  1.0000
  I   I320      1.0  0.39255  0.78591  0.82219  1.0000
  I   I321      1.0  0.02190  0.69166  0.75059  1.0000
  I   I322      1.0  0.56236  0.70051  0.92012  1.0000
  I   I323      1.0  0.74885  0.32060  0.24039  1.0000
  I   I324      1.0  0.43902  0.64316  0.68027  1.0000
  I   I325      1.0  0.24894  0.97132  0.15821  1.0000
  I   I326      1.0  0.45788  0.54718  0.62979  1.0000
  I   I327      1.0  0.79521  0.33073  0.28931  1.0000
  I   I328      1.0  0.81095  0.17744  0.00349  1.0000
  I   I329      1.0  0.72608  0.20501  0.12148  1.0000
  I   I330      1.0  0.69156  0.99028  0.48971  1.0000
  I   I331      1.0  0.97756  0.86032  0.93431  1.0000
  I   I332      1.0  0.70603  0.97487  0.69672  1.0000
  I   I333      1.0  0.54318  0.66200  0.89717  1.0000
  I   I334      1.0  0.22452  0.09628  0.94418  1.0000
  I   I335      1.0  0.36650  0.31022  0.98378  1.0000
  I   I336      1.0  0.82250  0.06364  0.93859  1.0000
  I   I337      1.0  0.41980  0.82140  0.12906  1.0000
  I   I338      1.0  0.21156  0.45415  0.93256  1.0000
  I   I339      1.0  0.39581  0.93129  0.30037  1.0000
  I   I340      1.0  0.87323  0.72394  0.28900  1.0000
  I   I341      1.0  0.92529  0.25531  0.89842  1.0000
  I   I342      1.0  0.90126  0.89206  0.05690  1.0000
  I   I343      1.0  0.98453  0.72730  0.80949  1.0000
  I   I344      1.0  0.66251  0.30839  0.67497  1.0000
  I   I345      1.0  0.04832  0.08249  0.61003  1.0000
  I   I346      1.0  0.36492  0.91202  0.85672  1.0000
  I   I347      1.0  0.83870  0.91828  0.76701  1.0000
  I   I348      1.0  0.49791  0.01862  0.31120  1.0000
  I   I349      1.0  0.63514  0.24331  0.61811  1.0000
  I   I350      1.0  0.43360  0.60751  0.29815  1.0000
  I   I351      1.0  0.44018  0.74519  0.84262  1.0000
  I   I352      1.0  0.33772  0.47214  0.43846  1.0000
  I   I353      1.0  0.42920  0.28112  0.81338  1.0000
  I   I354      1.0  0.43359  0.45935  0.63971  1.0000
  I   I355      1.0  0.55241  0.96526  0.26528  1.0000
  I   I356      1.0  0.31408  0.33847  0.96052  1.0000
  I   I357      1.0  0.31377  0.51521  0.67517  1.0000
  I   I358      1.0  0.89715  0.30918  0.57259  1.0000
  I   I359      1.0  0.75902  0.46551  0.07553  1.0000
  I   I360      1.0  0.33734  0.88753  0.37399  1.0000
  I   I361      1.0  0.03237  0.79383  0.29781  1.0000
  I   I362      1.0  0.02679  0.98508  0.96802  1.0000
  I   I363      1.0  0.30705  0.55748  0.78374  1.0000
  I   I364      1.0  0.68195  0.41973  0.18645  1.0000
  I   I365      1.0  0.62605  0.52342  0.45529  1.0000
  I   I366      1.0  0.60701  0.78461  0.30989  1.0000
  I   I367      1.0  0.08730  0.78684  0.60568  1.0000
  I   I368      1.0  0.93112  0.68962  0.29123  1.0000
  I   I369      1.0  0.47082  0.88817  0.22041  1.0000
  I   I370      1.0  0.07843  0.06094  0.52286  1.0000
  I   I371      1.0  0.79327  0.29859  0.34977  1.0000
  I   I372      1.0  0.96879  0.26958  0.89759  1.0000
  I   I373      1.0  0.28177  0.97951  0.24221  1.0000
  I   I374      1.0  0.60444  0.61684  0.68792  1.0000
  I   I375      1.0  0.74820  0.33803  0.32137  1.0000
  I   I376      1.0  0.75684  0.51850  0.09994  1.0000
  I   I377      1.0  0.74441  0.16328  0.04457  1.0000
  I   I378      1.0  0.29531  0.66301  0.74369  1.0000
  I   I379      1.0  0.72895  0.45155  0.27357  1.0000
  I   I380      1.0  0.86236  0.21466  0.63118  1.0000
  I   I381      1.0  0.56915  0.95231  0.33983  1.0000
  I   I382      1.0  0.29855  0.10397  0.84277  1.0000
  I   I383      1.0  0.31997  0.73656  0.53050  1.0000
  I   I384      1.0  0.34817  0.84509  0.32277  1.0000
