data_image0
_chemical_formula_structural       Ti96I384
_chemical_formula_sum              "Ti96 I384"
_cell_length_a       39.2548
_cell_length_b       38.5794
_cell_length_c       22.2189
_cell_angle_alpha    88.7757
_cell_angle_beta     88.7757
_cell_angle_gamma    62.1586

_space_group_name_H-M_alt    "P 1"
_space_group_IT_number       1

loop_
  _space_group_symop_operation_xyz
  'x, y, z'

loop_
  _atom_site_type_symbol
  _atom_site_label
  _atom_site_symmetry_multiplicity
  _atom_site_fract_x
  _atom_site_fract_y
  _atom_site_fract_z
  _atom_site_occupancy
  Ti  Ti1       1.0  0.18413  0.06913  0.15323  1.0000
  Ti  Ti2       1.0  0.19192  0.06556  0.49557  1.0000
  Ti  Ti3       1.0  0.16345  0.06160  0.82388  1.0000
  Ti  Ti4       1.0  0.16241  0.32032  0.31589  1.0000
  Ti  Ti5       1.0  0.14304  0.31981  0.66054  1.0000
  Ti  Ti6       1.0  0.16597  0.32574  0.98129  1.0000
  Ti  Ti7       1.0  0.16617  0.58197  0.31186  1.0000
  Ti  Ti8       1.0  0.16450  0.58700  0.66998  1.0000
  Ti  Ti9       1.0  0.14841  0.59408  0.99443  1.0000
  Ti  Ti10      1.0  0.11181  0.89073  0.23742  1.0000
  Ti  Ti11      1.0  0.11142  0.90228  0.56504  1.0000
  Ti  Ti12      1.0  0.11328  0.89651  0.89173  1.0000
  Ti  Ti13      1.0  0.42604  0.07218  0.25234  1.0000
  Ti  Ti14      1.0  0.42039  0.08167  0.60622  1.0000
  Ti  Ti15      1.0  0.43381  0.08845  0.92408  1.0000
  Ti  Ti16      1.0  0.42981  0.31129  0.30363  1.0000
  Ti  Ti17      1.0  0.42136  0.31545  0.63309  1.0000
  Ti  Ti18      1.0  0.42652  0.32519  0.99154  1.0000
  Ti  Ti19      1.0  0.33769  0.64965  0.25861  1.0000
  Ti  Ti20      1.0  0.36367  0.64059  0.61337  1.0000
  Ti  Ti21      1.0  0.35172  0.65810  0.95774  1.0000
  Ti  Ti22      1.0  0.39768  0.85314  0.16378  1.0000
  Ti  Ti23      1.0  0.41251  0.85348  0.49833  1.0000
  Ti  Ti24      1.0  0.41878  0.83892  0.83324  1.0000
  Ti  Ti25      1.0  0.67667  0.07837  0.31612  1.0000
  Ti  Ti26      1.0  0.66397  0.07478  0.65386  1.0000
  Ti  Ti27      1.0  0.67497  0.07452  0.00649  1.0000
  Ti  Ti28      1.0  0.62559  0.38098  0.28160  1.0000
  Ti  Ti29      1.0  0.60546  0.38211  0.62039  1.0000
  Ti  Ti30      1.0  0.62956  0.37761  0.95300  1.0000
  Ti  Ti31      1.0  0.68115  0.58235  0.15498  1.0000
  Ti  Ti32      1.0  0.69436  0.58961  0.50283  1.0000
  Ti  Ti33      1.0  0.67891  0.59451  0.82462  1.0000
  Ti  Ti34      1.0  0.68036  0.82572  0.27247  1.0000
  Ti  Ti35      1.0  0.67567  0.82833  0.58758  1.0000
  Ti  Ti36      1.0  0.68666  0.83200  0.92063  1.0000
  Ti  Ti37      1.0  0.86893  0.12401  0.19216  1.0000
  Ti  Ti38      1.0  0.85556  0.12480  0.53873  1.0000
  Ti  Ti39      1.0  0.86820  0.13272  0.85027  1.0000
  Ti  Ti40      1.0  0.93978  0.30388  0.18624  1.0000
  Ti  Ti41      1.0  0.93957  0.30917  0.51686  1.0000
  Ti  Ti42      1.0  0.93638  0.31415  0.84407  1.0000
  Ti  Ti43      1.0  0.90755  0.60698  0.23894  1.0000
  Ti  Ti44      1.0  0.92302  0.60623  0.56478  1.0000
  Ti  Ti45      1.0  0.91889  0.59002  0.90460  1.0000
  Ti  Ti46      1.0  0.90916  0.84197  0.31297  1.0000
  Ti  Ti47      1.0  0.90835  0.82811  0.63335  1.0000
  Ti  Ti48      1.0  0.90470  0.82916  0.97195  1.0000
  Ti  Ti49      1.0  0.11212  0.11760  0.00023  1.0000
  Ti  Ti50      1.0  0.11322  0.12081  0.32969  1.0000
  Ti  Ti51      1.0  0.11089  0.12230  0.64159  1.0000
  Ti  Ti52      1.0  0.11269  0.37432  0.16021  1.0000
  Ti  Ti53      1.0  0.08942  0.38061  0.47140  1.0000
  Ti  Ti54      1.0  0.09035  0.38394  0.82549  1.0000
  Ti  Ti55      1.0  0.09394  0.65983  0.17172  1.0000
  Ti  Ti56      1.0  0.11810  0.64424  0.48676  1.0000
  Ti  Ti57      1.0  0.09536  0.66510  0.82788  1.0000
  Ti  Ti58      1.0  0.04679  0.94810  0.06635  1.0000
  Ti  Ti59      1.0  0.04314  0.95626  0.40378  1.0000
  Ti  Ti60      1.0  0.04214  0.96355  0.73811  1.0000
  Ti  Ti61      1.0  0.36111  0.13667  0.09721  1.0000
  Ti  Ti62      1.0  0.35845  0.12597  0.41625  1.0000
  Ti  Ti63      1.0  0.35535  0.15655  0.75864  1.0000
  Ti  Ti64      1.0  0.35029  0.37996  0.15165  1.0000
  Ti  Ti65      1.0  0.36274  0.36090  0.46627  1.0000
  Ti  Ti66      1.0  0.36909  0.36583  0.81295  1.0000
  Ti  Ti67      1.0  0.26416  0.70649  0.10610  1.0000
  Ti  Ti68      1.0  0.29075  0.69487  0.44757  1.0000
  Ti  Ti69      1.0  0.28991  0.70395  0.76978  1.0000
  Ti  Ti70      1.0  0.35471  0.91239  0.99977  1.0000
  Ti  Ti71      1.0  0.34614  0.90793  0.32954  1.0000
  Ti  Ti72      1.0  0.36019  0.90078  0.67476  1.0000
  Ti  Ti73      1.0  0.61483  0.15192  0.15667  1.0000
  Ti  Ti74      1.0  0.63001  0.14691  0.49291  1.0000
  Ti  Ti75      1.0  0.61048  0.14500  0.82813  1.0000
  Ti  Ti76      1.0  0.55008  0.44372  0.11663  1.0000
  Ti  Ti77      1.0  0.54095  0.43874  0.45331  1.0000
  Ti  Ti78      1.0  0.54395  0.43737  0.79474  1.0000
  Ti  Ti79      1.0  0.61777  0.65227  0.98524  1.0000
  Ti  Ti80      1.0  0.62611  0.65219  0.33019  1.0000
  Ti  Ti81      1.0  0.62276  0.65305  0.65275  1.0000
  Ti  Ti82      1.0  0.61952  0.88391  0.10021  1.0000
  Ti  Ti83      1.0  0.61524  0.89719  0.42679  1.0000
  Ti  Ti84      1.0  0.62077  0.89294  0.76518  1.0000
  Ti  Ti85      1.0  0.81292  0.18484  0.03131  1.0000
  Ti  Ti86      1.0  0.80415  0.18899  0.36309  1.0000
  Ti  Ti87      1.0  0.79582  0.19254  0.69236  1.0000
  Ti  Ti88      1.0  0.87262  0.37322  0.02259  1.0000
  Ti  Ti89      1.0  0.87940  0.38022  0.34438  1.0000
  Ti  Ti90      1.0  0.88285  0.38328  0.67900  1.0000
  Ti  Ti91      1.0  0.84975  0.66585  0.05296  1.0000
  Ti  Ti92      1.0  0.85869  0.67118  0.39649  1.0000
  Ti  Ti93      1.0  0.85801  0.66334  0.73207  1.0000
  Ti  Ti94      1.0  0.84997  0.88844  0.14745  1.0000
  Ti  Ti95      1.0  0.84527  0.89002  0.47422  1.0000
  Ti  Ti96      1.0  0.84611  0.88994  0.80448  1.0000
  I   I1        1.0  0.11606  0.08107  0.21972  1.0000
  I   I2        1.0  0.11973  0.07951  0.53394  1.0000
  I   I3        1.0  0.10561  0.07472  0.89994  1.0000
  I   I4        1.0  0.08977  0.34028  0.36964  1.0000
  I   I5        1.0  0.06511  0.36184  0.70451  1.0000
  I   I6        1.0  0.10557  0.33270  0.06456  1.0000
  I   I7        1.0  0.09705  0.61441  0.39000  1.0000
  I   I8        1.0  0.08814  0.63567  0.72869  1.0000
  I   I9        1.0  0.06663  0.63772  0.06055  1.0000
  I   I10       1.0  0.04377  0.90581  0.29926  1.0000
  I   I11       1.0  0.03248  0.92978  0.63300  1.0000
  I   I12       1.0  0.03701  0.91897  0.95905  1.0000
  I   I13       1.0  0.35364  0.09410  0.30796  1.0000
  I   I14       1.0  0.34254  0.12043  0.66064  1.0000
  I   I15       1.0  0.36194  0.10739  0.97469  1.0000
  I   I16       1.0  0.35688  0.32563  0.37129  1.0000
  I   I17       1.0  0.35548  0.33116  0.71115  1.0000
  I   I18       1.0  0.35032  0.34759  0.03941  1.0000
  I   I19       1.0  0.28683  0.64588  0.35302  1.0000
  I   I20       1.0  0.28205  0.67087  0.65272  1.0000
  I   I21       1.0  0.26674  0.67080  0.00312  1.0000
  I   I22       1.0  0.32533  0.89957  0.20982  1.0000
  I   I23       1.0  0.34307  0.87761  0.56699  1.0000
  I   I24       1.0  0.34052  0.88257  0.90294  1.0000
  I   I25       1.0  0.60681  0.12029  0.38547  1.0000
  I   I26       1.0  0.59030  0.11135  0.73306  1.0000
  I   I27       1.0  0.60012  0.11358  0.05823  1.0000
  I   I28       1.0  0.54780  0.40296  0.34286  1.0000
  I   I29       1.0  0.53946  0.39418  0.69786  1.0000
  I   I30       1.0  0.55328  0.40260  0.01146  1.0000
  I   I31       1.0  0.61598  0.60974  0.23187  1.0000
  I   I32       1.0  0.61592  0.61417  0.55642  1.0000
  I   I33       1.0  0.60225  0.62954  0.88380  1.0000
  I   I34       1.0  0.59876  0.87276  0.31695  1.0000
  I   I35       1.0  0.59542  0.86731  0.66061  1.0000
  I   I36       1.0  0.60879  0.85612  0.98043  1.0000
  I   I37       1.0  0.79429  0.15394  0.26176  1.0000
  I   I38       1.0  0.78327  0.15690  0.59837  1.0000
  I   I39       1.0  0.80003  0.15033  0.93143  1.0000
  I   I40       1.0  0.86301  0.34143  0.26028  1.0000
  I   I41       1.0  0.85952  0.35575  0.57886  1.0000
  I   I42       1.0  0.85740  0.34761  0.90754  1.0000
  I   I43       1.0  0.83654  0.65024  0.29534  1.0000
  I   I44       1.0  0.84464  0.63489  0.63166  1.0000
  I   I45       1.0  0.84183  0.62445  0.96625  1.0000
  I   I46       1.0  0.83699  0.84725  0.37146  1.0000
  I   I47       1.0  0.83463  0.85178  0.69452  1.0000
  I   I48       1.0  0.83743  0.86012  0.04102  1.0000
  I   I49       1.0  0.13485  0.14723  0.09501  1.0000
  I   I50       1.0  0.13437  0.15099  0.42494  1.0000
  I   I51       1.0  0.12613  0.14066  0.75736  1.0000
  I   I52       1.0  0.12487  0.40269  0.26672  1.0000
  I   I53       1.0  0.11572  0.39223  0.58767  1.0000
  I   I54       1.0  0.11735  0.39846  0.92427  1.0000
  I   I55       1.0  0.13145  0.66210  0.26552  1.0000
  I   I56       1.0  0.14767  0.65648  0.60113  1.0000
  I   I57       1.0  0.12179  0.67332  0.94528  1.0000
  I   I58       1.0  0.08889  0.96060  0.15985  1.0000
  I   I59       1.0  0.08490  0.97157  0.50298  1.0000
  I   I60       1.0  0.07946  0.97540  0.83518  1.0000
  I   I61       1.0  0.38126  0.15082  0.20737  1.0000
  I   I62       1.0  0.38767  0.14947  0.52135  1.0000
  I   I63       1.0  0.37703  0.17548  0.87371  1.0000
  I   I64       1.0  0.37335  0.39195  0.26171  1.0000
  I   I65       1.0  0.37567  0.38983  0.59410  1.0000
  I   I66       1.0  0.38599  0.39733  0.91603  1.0000
  I   I67       1.0  0.28548  0.72570  0.22668  1.0000
  I   I68       1.0  0.32210  0.71826  0.53552  1.0000
  I   I69       1.0  0.30467  0.73375  0.87633  1.0000
  I   I70       1.0  0.38883  0.92444  0.10387  1.0000
  I   I71       1.0  0.36864  0.93129  0.45423  1.0000
  I   I72       1.0  0.38273  0.91955  0.78434  1.0000
  I   I73       1.0  0.65101  0.15731  0.25593  1.0000
  I   I74       1.0  0.65375  0.15044  0.59959  1.0000
  I   I75       1.0  0.65726  0.14097  0.92289  1.0000
  I   I76       1.0  0.58082  0.46250  0.21541  1.0000
  I   I77       1.0  0.55335  0.45569  0.56811  1.0000
  I   I78       1.0  0.58441  0.45440  0.87275  1.0000
  I   I79       1.0  0.65079  0.65817  0.09549  1.0000
  I   I80       1.0  0.66581  0.66355  0.43130  1.0000
  I   I81       1.0  0.65398  0.66751  0.75259  1.0000
  I   I82       1.0  0.65080  0.90472  0.19638  1.0000
  I   I83       1.0  0.64299  0.90514  0.53606  1.0000
  I   I84       1.0  0.64421  0.91206  0.87338  1.0000
  I   I85       1.0  0.84073  0.19970  0.12912  1.0000
  I   I86       1.0  0.82947  0.20003  0.47931  1.0000
  I   I87       1.0  0.83228  0.20856  0.79478  1.0000
  I   I88       1.0  0.89504  0.39194  0.12331  1.0000
  I   I89       1.0  0.91945  0.37969  0.44231  1.0000
  I   I90       1.0  0.90964  0.39549  0.79788  1.0000
  I   I91       1.0  0.88349  0.67846  0.16558  1.0000
  I   I92       1.0  0.88136  0.68805  0.50348  1.0000
  I   I93       1.0  0.89794  0.66612  0.83335  1.0000
  I   I94       1.0  0.86993  0.91805  0.24423  1.0000
  I   I95       1.0  0.87007  0.90635  0.58076  1.0000
  I   I96       1.0  0.86948  0.90647  0.91176  1.0000
  I   I97       1.0  0.18491  0.08343  0.94792  1.0000
  I   I98       1.0  0.17532  0.11835  0.25028  1.0000
  I   I99       1.0  0.18938  0.09676  0.60440  1.0000
  I   I100      1.0  0.18856  0.34755  0.10083  1.0000
  I   I101      1.0  0.16195  0.36633  0.42567  1.0000
  I   I102      1.0  0.15863  0.35862  0.75978  1.0000
  I   I103      1.0  0.16953  0.61000  0.10442  1.0000
  I   I104      1.0  0.18747  0.59922  0.41592  1.0000
  I   I105      1.0  0.18227  0.60375  0.77920  1.0000
  I   I106      1.0  0.11790  0.93307  0.99907  1.0000
  I   I107      1.0  0.11554  0.92860  0.34241  1.0000
  I   I108      1.0  0.11344  0.93868  0.67419  1.0000
  I   I109      1.0  0.43046  0.12929  0.02651  1.0000
  I   I110      1.0  0.43500  0.11258  0.36475  1.0000
  I   I111      1.0  0.42431  0.13226  0.68205  1.0000
  I   I112      1.0  0.42553  0.36278  0.09988  1.0000
  I   I113      1.0  0.43898  0.34215  0.40421  1.0000
  I   I114      1.0  0.43740  0.34769  0.75343  1.0000
  I   I115      1.0  0.32969  0.70843  0.04798  1.0000
  I   I116      1.0  0.36069  0.67007  0.37085  1.0000
  I   I117      1.0  0.37140  0.67957  0.71148  1.0000
  I   I118      1.0  0.43555  0.87225  0.93104  1.0000
  I   I119      1.0  0.42760  0.87433  0.26912  1.0000
  I   I120      1.0  0.43412  0.87311  0.61758  1.0000
  I   I121      1.0  0.68963  0.11630  0.08324  1.0000
  I   I122      1.0  0.70234  0.09938  0.43164  1.0000
  I   I123      1.0  0.68061  0.10330  0.75733  1.0000
  I   I124      1.0  0.62611  0.42622  0.04646  1.0000
  I   I125      1.0  0.62636  0.42034  0.38100  1.0000
  I   I126      1.0  0.61454  0.42319  0.71802  1.0000
  I   I127      1.0  0.68972  0.62628  0.93126  1.0000
  I   I128      1.0  0.69409  0.61928  0.25981  1.0000
  I   I129      1.0  0.70367  0.62253  0.60291  1.0000
  I   I130      1.0  0.69251  0.85596  0.03228  1.0000
  I   I131      1.0  0.70218  0.84790  0.37094  1.0000
  I   I132      1.0  0.68991  0.85647  0.69271  1.0000
  I   I133      1.0  0.88475  0.15792  0.95475  1.0000
  I   I134      1.0  0.87569  0.15969  0.28452  1.0000
  I   I135      1.0  0.86952  0.16429  0.63242  1.0000
  I   I136      1.0  0.95181  0.33449  0.95249  1.0000
  I   I137      1.0  0.95623  0.34097  0.27195  1.0000
  I   I138      1.0  0.95546  0.34194  0.61496  1.0000
  I   I139      1.0  0.93114  0.62121  0.00481  1.0000
  I   I140      1.0  0.93023  0.63231  0.33638  1.0000
  I   I141      1.0  0.93720  0.63640  0.66808  1.0000
  I   I142      1.0  0.92497  0.86379  0.08273  1.0000
  I   I143      1.0  0.92255  0.86702  0.41888  1.0000
  I   I144      1.0  0.92027  0.85719  0.74675  1.0000
  I   I145      1.0  0.15617  0.04626  0.06345  1.0000
  I   I146      1.0  0.16375  0.04694  0.38587  1.0000
  I   I147      1.0  0.14037  0.04939  0.72161  1.0000
  I   I148      1.0  0.13448  0.29576  0.22556  1.0000
  I   I149      1.0  0.11544  0.31038  0.54715  1.0000
  I   I150      1.0  0.13952  0.29915  0.88552  1.0000
  I   I151      1.0  0.11592  0.58371  0.21344  1.0000
  I   I152      1.0  0.14099  0.56749  0.55658  1.0000
  I   I153      1.0  0.10845  0.59267  0.89393  1.0000
  I   I154      1.0  0.08547  0.87554  0.12858  1.0000
  I   I155      1.0  0.08435  0.88252  0.46088  1.0000
  I   I156      1.0  0.08093  0.87931  0.80239  1.0000
  I   I157      1.0  0.40901  0.05322  0.14277  1.0000
  I   I158      1.0  0.38685  0.06150  0.50869  1.0000
  I   I159      1.0  0.39906  0.07576  0.82319  1.0000
  I   I160      1.0  0.39830  0.30099  0.19533  1.0000
  I   I161      1.0  0.39595  0.28967  0.53327  1.0000
  I   I162      1.0  0.41410  0.29859  0.88766  1.0000
  I   I163      1.0  0.30668  0.63311  0.16008  1.0000
  I   I164      1.0  0.34657  0.61986  0.50580  1.0000
  I   I165      1.0  0.33507  0.63050  0.84295  1.0000
  I   I166      1.0  0.38083  0.83850  0.05507  1.0000
  I   I167      1.0  0.39104  0.82983  0.39166  1.0000
  I   I168      1.0  0.38976  0.82264  0.73430  1.0000
  I   I169      1.0  0.63217  0.07999  0.22091  1.0000
  I   I170      1.0  0.62623  0.07717  0.55284  1.0000
  I   I171      1.0  0.64269  0.06617  0.89597  1.0000
  I   I172      1.0  0.59973  0.36638  0.17519  1.0000
  I   I173      1.0  0.58592  0.36268  0.51242  1.0000
  I   I174      1.0  0.59283  0.36144  0.85825  1.0000
  I   I175      1.0  0.65086  0.57756  0.04649  1.0000
  I   I176      1.0  0.66017  0.57497  0.40780  1.0000
  I   I177      1.0  0.64486  0.58630  0.72829  1.0000
  I   I178      1.0  0.64773  0.80863  0.16212  1.0000
  I   I179      1.0  0.64060  0.82184  0.49050  1.0000
  I   I180      1.0  0.65397  0.81787  0.82430  1.0000
  I   I181      1.0  0.84214  0.10742  0.08413  1.0000
  I   I182      1.0  0.84609  0.11365  0.42144  1.0000
  I   I183      1.0  0.83044  0.11773  0.76129  1.0000
  I   I184      1.0  0.91371  0.29115  0.07646  1.0000
  I   I185      1.0  0.90460  0.29642  0.42174  1.0000
  I   I186      1.0  0.88801  0.31883  0.74555  1.0000
  I   I187      1.0  0.87155  0.60169  0.13399  1.0000
  I   I188      1.0  0.88748  0.59653  0.46697  1.0000
  I   I189      1.0  0.88218  0.58836  0.79264  1.0000
  I   I190      1.0  0.87769  0.82088  0.21585  1.0000
  I   I191      1.0  0.87473  0.81444  0.52455  1.0000
  I   I192      1.0  0.87611  0.81185  0.87476  1.0000
  I   I193      1.0  0.25158  0.06197  0.10996  1.0000
  I   I194      1.0  0.24082  0.07980  0.42979  1.0000
  I   I195      1.0  0.22908  0.06287  0.79158  1.0000
  I   I196      1.0  0.22847  0.30073  0.26313  1.0000
  I   I197      1.0  0.21267  0.30009  0.63895  1.0000
  I   I198      1.0  0.22491  0.32457  0.92494  1.0000
  I   I199      1.0  0.23625  0.55833  0.26386  1.0000
  I   I200      1.0  0.23474  0.55292  0.63468  1.0000
  I   I201      1.0  0.22120  0.56540  0.96211  1.0000
  I   I202      1.0  0.18214  0.88601  0.21387  1.0000
  I   I203      1.0  0.18227  0.88320  0.54507  1.0000
  I   I204      1.0  0.17715  0.88791  0.83127  1.0000
  I   I205      1.0  0.49124  0.06713  0.22265  1.0000
  I   I206      1.0  0.48687  0.06342  0.54561  1.0000
  I   I207      1.0  0.48968  0.09348  0.86596  1.0000
  I   I208      1.0  0.49083  0.30303  0.24327  1.0000
  I   I209      1.0  0.48285  0.31313  0.59020  1.0000
  I   I210      1.0  0.49356  0.32009  0.96398  1.0000
  I   I211      1.0  0.39031  0.66853  0.21349  1.0000
  I   I212      1.0  0.43723  0.60794  0.59527  1.0000
  I   I213      1.0  0.41936  0.65004  0.92433  1.0000
  I   I214      1.0  0.46816  0.82629  0.11247  1.0000
  I   I215      1.0  0.47654  0.84318  0.44491  1.0000
  I   I216      1.0  0.48896  0.82098  0.78957  1.0000
  I   I217      1.0  0.73659  0.05488  0.24838  1.0000
  I   I218      1.0  0.73621  0.04846  0.61242  1.0000
  I   I219      1.0  0.74531  0.03685  0.96007  1.0000
  I   I220      1.0  0.69155  0.37037  0.23544  1.0000
  I   I221      1.0  0.66787  0.38792  0.58682  1.0000
  I   I222      1.0  0.69111  0.36591  0.89603  1.0000
  I   I223      1.0  0.74948  0.57154  0.11292  1.0000
  I   I224      1.0  0.76121  0.57971  0.45803  1.0000
  I   I225      1.0  0.74962  0.56655  0.79409  1.0000
  I   I226      1.0  0.74659  0.80457  0.21878  1.0000
  I   I227      1.0  0.74308  0.80684  0.54616  1.0000
  I   I228      1.0  0.75164  0.81636  0.88353  1.0000
  I   I229      1.0  0.94066  0.09239  0.14472  1.0000
  I   I230      1.0  0.93377  0.08419  0.51657  1.0000
  I   I231      1.0  0.93500  0.12583  0.80712  1.0000
  I   I232      1.0  0.00499  0.29019  0.13679  1.0000
  I   I233      1.0  0.00789  0.28462  0.47228  1.0000
  I   I234      1.0  0.99913  0.30393  0.79245  1.0000
  I   I235      1.0  0.97669  0.57653  0.18841  1.0000
  I   I236      1.0  0.98543  0.59476  0.50091  1.0000
  I   I237      1.0  0.99423  0.55525  0.87570  1.0000
  I   I238      1.0  0.97517  0.83530  0.27701  1.0000
  I   I239      1.0  0.96734  0.81825  0.57064  1.0000
  I   I240      1.0  0.97230  0.81611  0.92679  1.0000
  I   I241      1.0  0.21707  0.00222  0.21798  1.0000
  I   I242      1.0  0.23513  0.99266  0.51595  1.0000
  I   I243      1.0  0.20176  0.98722  0.85187  1.0000
  I   I244      1.0  0.18995  0.25949  0.39161  1.0000
  I   I245      1.0  0.14843  0.25239  0.70409  1.0000
  I   I246      1.0  0.20403  0.24882  0.01362  1.0000
  I   I247      1.0  0.17786  0.51199  0.34232  1.0000
  I   I248      1.0  0.15632  0.52332  0.70353  1.0000
  I   I249      1.0  0.15767  0.52913  0.04302  1.0000
  I   I250      1.0  0.14753  0.82044  0.27933  1.0000
  I   I251      1.0  0.11714  0.83412  0.60484  1.0000
  I   I252      1.0  0.13477  0.82733  0.94356  1.0000
  I   I253      1.0  0.45164  0.00928  0.32375  1.0000
  I   I254      1.0  0.44736  0.01874  0.66570  1.0000
  I   I255      1.0  0.46913  0.01728  0.96386  1.0000
  I   I256      1.0  0.46575  0.23960  0.34804  1.0000
  I   I257      1.0  0.45231  0.24429  0.68537  1.0000
  I   I258      1.0  0.44864  0.25495  0.03789  1.0000
  I   I259      1.0  0.38934  0.57480  0.28079  1.0000
  I   I260      1.0  0.36727  0.58039  0.67081  1.0000
  I   I261      1.0  0.37995  0.58580  0.99847  1.0000
  I   I262      1.0  0.40523  0.78415  0.20399  1.0000
  I   I263      1.0  0.44346  0.78129  0.53297  1.0000
  I   I264      1.0  0.43368  0.77472  0.88473  1.0000
  I   I265      1.0  0.68936  0.01011  0.34946  1.0000
  I   I266      1.0  0.67649  0.00911  0.69999  1.0000
  I   I267      1.0  0.67548  0.00627  0.05296  1.0000
  I   I268      1.0  0.64011  0.30934  0.32213  1.0000
  I   I269      1.0  0.63900  0.30716  0.65462  1.0000
  I   I270      1.0  0.65198  0.31198  0.00010  1.0000
  I   I271      1.0  0.70681  0.51314  0.19992  1.0000
  I   I272      1.0  0.71625  0.51688  0.54232  1.0000
  I   I273      1.0  0.68249  0.52929  0.86858  1.0000
  I   I274      1.0  0.68326  0.75928  0.31713  1.0000
  I   I275      1.0  0.69180  0.76168  0.64585  1.0000
  I   I276      1.0  0.70239  0.75859  0.95906  1.0000
  I   I277      1.0  0.87964  0.05992  0.24542  1.0000
  I   I278      1.0  0.86507  0.05289  0.57880  1.0000
  I   I279      1.0  0.88929  0.06264  0.89005  1.0000
  I   I280      1.0  0.95313  0.23508  0.23070  1.0000
  I   I281      1.0  0.96113  0.24375  0.58105  1.0000
  I   I282      1.0  0.95296  0.23772  0.85334  1.0000
  I   I283      1.0  0.91513  0.54035  0.28329  1.0000
  I   I284      1.0  0.94353  0.53682  0.61232  1.0000
  I   I285      1.0  0.93372  0.52238  0.95285  1.0000
  I   I286      1.0  0.94338  0.76719  0.34620  1.0000
  I   I287      1.0  0.94075  0.76197  0.69584  1.0000
  I   I288      1.0  0.92836  0.76134  0.01936  1.0000
  I   I289      1.0  0.04309  0.12649  0.05062  1.0000
  I   I290      1.0  0.05232  0.12371  0.37939  1.0000
  I   I291      1.0  0.04098  0.13475  0.65671  1.0000
  I   I292      1.0  0.04111  0.38937  0.19227  1.0000
  I   I293      1.0  0.02338  0.38825  0.51468  1.0000
  I   I294      1.0  0.02707  0.39297  0.88085  1.0000
  I   I295      1.0  0.02834  0.67875  0.23611  1.0000
  I   I296      1.0  0.05014  0.66388  0.54145  1.0000
  I   I297      1.0  0.02222  0.69002  0.85402  1.0000
  I   I298      1.0  0.98154  0.96021  0.11058  1.0000
  I   I299      1.0  0.98078  0.96360  0.45619  1.0000
  I   I300      1.0  0.98169  0.97738  0.79705  1.0000
  I   I301      1.0  0.29607  0.13195  0.12326  1.0000
  I   I302      1.0  0.29374  0.14637  0.47343  1.0000
  I   I303      1.0  0.29364  0.16382  0.81166  1.0000
  I   I304      1.0  0.28272  0.39101  0.18124  1.0000
  I   I305      1.0  0.29739  0.36830  0.51064  1.0000
  I   I306      1.0  0.30822  0.36029  0.86605  1.0000
  I   I307      1.0  0.19917  0.71217  0.14730  1.0000
  I   I308      1.0  0.23058  0.69629  0.51419  1.0000
  I   I309      1.0  0.22196  0.72556  0.80178  1.0000
  I   I310      1.0  0.28404  0.93981  0.04533  1.0000
  I   I311      1.0  0.28604  0.90296  0.36972  1.0000
  I   I312      1.0  0.29040  0.92796  0.71636  1.0000
  I   I313      1.0  0.54801  0.17529  0.21474  1.0000
  I   I314      1.0  0.55812  0.18888  0.53261  1.0000
  I   I315      1.0  0.54565  0.17162  0.88195  1.0000
  I   I316      1.0  0.49041  0.45060  0.18428  1.0000
  I   I317      1.0  0.47393  0.44142  0.47712  1.0000
  I   I318      1.0  0.48568  0.44397  0.85830  1.0000
  I   I319      1.0  0.55187  0.66582  0.04029  1.0000
  I   I320      1.0  0.56140  0.67076  0.39117  1.0000
  I   I321      1.0  0.55070  0.67416  0.68925  1.0000
  I   I322      1.0  0.55167  0.91737  0.14416  1.0000
  I   I323      1.0  0.54564  0.92330  0.46879  1.0000
  I   I324      1.0  0.55251  0.90806  0.81099  1.0000
  I   I325      1.0  0.74255  0.21788  0.06985  1.0000
  I   I326      1.0  0.73745  0.19902  0.40628  1.0000
  I   I327      1.0  0.73945  0.19795  0.76628  1.0000
  I   I328      1.0  0.80789  0.36992  0.04532  1.0000
  I   I329      1.0  0.80966  0.40259  0.39219  1.0000
  I   I330      1.0  0.80958  0.41913  0.71482  1.0000
  I   I331      1.0  0.77775  0.70349  0.09602  1.0000
  I   I332      1.0  0.79079  0.69050  0.45169  1.0000
  I   I333      1.0  0.78821  0.68644  0.77909  1.0000
  I   I334      1.0  0.78291  0.90117  0.19617  1.0000
  I   I335      1.0  0.77879  0.90073  0.52545  1.0000
  I   I336      1.0  0.77741  0.90691  0.83496  1.0000
  I   I337      1.0  0.07682  0.18580  0.93906  1.0000
  I   I338      1.0  0.07576  0.18596  0.26783  1.0000
  I   I339      1.0  0.09239  0.18884  0.59233  1.0000
  I   I340      1.0  0.09067  0.44082  0.10260  1.0000
  I   I341      1.0  0.06128  0.45456  0.43304  1.0000
  I   I342      1.0  0.05930  0.45229  0.77861  1.0000
  I   I343      1.0  0.07832  0.72576  0.12271  1.0000
  I   I344      1.0  0.10685  0.71464  0.44680  1.0000
  I   I345      1.0  0.07719  0.73853  0.78700  1.0000
  I   I346      1.0  0.02116  0.02080  0.03096  1.0000
  I   I347      1.0  0.01327  0.01819  0.34158  1.0000
  I   I348      1.0  0.01665  0.03549  0.69643  1.0000
  I   I349      1.0  0.32491  0.21119  0.07264  1.0000
  I   I350      1.0  0.32918  0.19336  0.36353  1.0000
  I   I351      1.0  0.32640  0.22916  0.71482  1.0000
  I   I352      1.0  0.32257  0.45477  0.11318  1.0000
  I   I353      1.0  0.34516  0.43225  0.42921  1.0000
  I   I354      1.0  0.33272  0.43379  0.75651  1.0000
  I   I355      1.0  0.22923  0.78053  0.06856  1.0000
  I   I356      1.0  0.25520  0.76448  0.40193  1.0000
  I   I357      1.0  0.27438  0.76986  0.71572  1.0000
  I   I358      1.0  0.34851  0.97757  0.95131  1.0000
  I   I359      1.0  0.32099  0.98071  0.28670  1.0000
  I   I360      1.0  0.33982  0.97347  0.63607  1.0000
  I   I361      1.0  0.59599  0.21842  0.11131  1.0000
  I   I362      1.0  0.62743  0.21002  0.44516  1.0000
  I   I363      1.0  0.59888  0.21183  0.77480  1.0000
  I   I364      1.0  0.51823  0.51351  0.06535  1.0000
  I   I365      1.0  0.51675  0.50692  0.39922  1.0000
  I   I366      1.0  0.52041  0.50358  0.74611  1.0000
  I   I367      1.0  0.59423  0.72250  0.93978  1.0000
  I   I368      1.0  0.59535  0.72430  0.28591  1.0000
  I   I369      1.0  0.61121  0.71910  0.59798  1.0000
  I   I370      1.0  0.60302  0.94904  0.03829  1.0000
  I   I371      1.0  0.61807  0.95433  0.37041  1.0000
  I   I372      1.0  0.58882  0.96627  0.71665  1.0000
  I   I373      1.0  0.79723  0.25423  0.97758  1.0000
  I   I374      1.0  0.78609  0.26151  0.32343  1.0000
  I   I375      1.0  0.76952  0.26088  0.63126  1.0000
  I   I376      1.0  0.85110  0.43983  0.96882  1.0000
  I   I377      1.0  0.87396  0.44656  0.31264  1.0000
  I   I378      1.0  0.88282  0.44757  0.63484  1.0000
  I   I379      1.0  0.83684  0.73137  0.99537  1.0000
  I   I380      1.0  0.84212  0.73859  0.34718  1.0000
  I   I381      1.0  0.84739  0.73293  0.70765  1.0000
  I   I382      1.0  0.83438  0.95745  0.09705  1.0000
  I   I383      1.0  0.82450  0.95926  0.42912  1.0000
  I   I384      1.0  0.83813  0.95725  0.76581  1.0000
