data_image0
_chemical_formula_structural       Ti96I384
_chemical_formula_sum              "Ti96 I384"
_cell_length_a       82.1571
_cell_length_b       81.6755
_cell_length_c       39.8805
_cell_angle_alpha    88.7757
_cell_angle_beta     88.7757
_cell_angle_gamma    62.1586

_space_group_name_H-M_alt    "P 1"
_space_group_IT_number       1

loop_
  _space_group_symop_operation_xyz
  'x, y, z'

loop_
  _atom_site_type_symbol
  _atom_site_label
  _atom_site_symmetry_multiplicity
  _atom_site_fract_x
  _atom_site_fract_y
  _atom_site_fract_z
  _atom_site_occupancy
  Ti  Ti1       1.0  0.89203  0.04306  0.66343  1.0000
  Ti  Ti2       1.0  0.66250  0.53403  0.72769  1.0000
  Ti  Ti3       1.0  0.04273  0.97227  0.49329  1.0000
  Ti  Ti4       1.0  0.28939  0.80660  0.76409  1.0000
  Ti  Ti5       1.0  0.84277  0.31759  0.57702  1.0000
  Ti  Ti6       1.0  0.14391  0.16301  0.07411  1.0000
  Ti  Ti7       1.0  0.47540  0.60866  0.53133  1.0000
  Ti  Ti8       1.0  0.24238  0.71305  0.49901  1.0000
  Ti  Ti9       1.0  0.14163  0.97009  0.50005  1.0000
  Ti  Ti10      1.0  0.77596  0.17202  0.98957  1.0000
  Ti  Ti11      1.0  0.38832  0.75382  0.53604  1.0000
  Ti  Ti12      1.0  0.41046  0.17795  0.97493  1.0000
  Ti  Ti13      1.0  0.38651  0.57160  0.24204  1.0000
  Ti  Ti14      1.0  0.34113  0.77473  0.79895  1.0000
  Ti  Ti15      1.0  0.46213  0.56038  0.94959  1.0000
  Ti  Ti16      1.0  0.86600  0.93708  0.68766  1.0000
  Ti  Ti17      1.0  0.70850  0.00049  0.53402  1.0000
  Ti  Ti18      1.0  0.21243  0.46919  0.45322  1.0000
  Ti  Ti19      1.0  0.56925  0.95590  0.31700  1.0000
  Ti  Ti20      1.0  0.71533  0.85176  0.71496  1.0000
  Ti  Ti21      1.0  0.18718  0.36418  0.43916  1.0000
  Ti  Ti22      1.0  0.18444  0.43631  0.79658  1.0000
  Ti  Ti23      1.0  0.30739  0.88905  0.30220  1.0000
  Ti  Ti24      1.0  0.04266  0.20424  0.97544  1.0000
  Ti  Ti25      1.0  0.13326  0.00965  0.88001  1.0000
  Ti  Ti26      1.0  0.36166  0.41543  0.72573  1.0000
  Ti  Ti27      1.0  0.18505  0.78887  0.12147  1.0000
  Ti  Ti28      1.0  0.16891  0.34460  0.07558  1.0000
  Ti  Ti29      1.0  0.62810  0.69609  0.46920  1.0000
  Ti  Ti30      1.0  0.72359  0.54540  0.40345  1.0000
  Ti  Ti31      1.0  0.87918  0.01455  0.94370  1.0000
  Ti  Ti32      1.0  0.81859  0.48688  0.02455  1.0000
  Ti  Ti33      1.0  0.98196  0.89525  0.57228  1.0000
  Ti  Ti34      1.0  0.61327  0.60106  0.80961  1.0000
  Ti  Ti35      1.0  0.91984  0.47850  0.10614  1.0000
  Ti  Ti36      1.0  0.60988  0.56668  0.48641  1.0000
  Ti  Ti37      1.0  0.25118  0.04303  0.35333  1.0000
  Ti  Ti38      1.0  0.78865  0.54110  0.62241  1.0000
  Ti  Ti39      1.0  0.79130  0.15882  0.91361  1.0000
  Ti  Ti40      1.0  0.91322  0.02339  0.39319  1.0000
  Ti  Ti41      1.0  0.47429  0.73998  0.92704  1.0000
  Ti  Ti42      1.0  0.09470  0.68633  0.07576  1.0000
  Ti  Ti43      1.0  0.32212  0.76599  0.51545  1.0000
  Ti  Ti44      1.0  0.32848  0.41342  0.15831  1.0000
  Ti  Ti45      1.0  0.70661  0.36207  0.38506  1.0000
  Ti  Ti46      1.0  0.16189  0.49343  0.20680  1.0000
  Ti  Ti47      1.0  0.07084  0.78766  0.39746  1.0000
  Ti  Ti48      1.0  0.11756  0.27562  0.93525  1.0000
  Ti  Ti49      1.0  0.41710  0.66969  0.07028  1.0000
  Ti  Ti50      1.0  0.20084  0.56319  0.68623  1.0000
  Ti  Ti51      1.0  0.33273  0.90538  0.31144  1.0000
  Ti  Ti52      1.0  0.22620  0.24871  0.39041  1.0000
  Ti  Ti53      1.0  0.61075  0.65961  0.16052  1.0000
  Ti  Ti54      1.0  0.08533  0.77579  0.20275  1.0000
  Ti  Ti55      1.0  0.84447  0.70094  0.61328  1.0000
  Ti  Ti56      1.0  0.68673  0.39023  0.59945  1.0000
  Ti  Ti57      1.0  0.17839  0.93379  0.52502  1.0000
  Ti  Ti58      1.0  0.90959  0.72001  0.98368  1.0000
  Ti  Ti59      1.0  0.83187  0.96039  0.78258  1.0000
  Ti  Ti60      1.0  0.49167  0.91439  0.44266  1.0000
  Ti  Ti61      1.0  0.58983  0.19603  0.75710  1.0000
  Ti  Ti62      1.0  0.43608  0.56396  0.22251  1.0000
  Ti  Ti63      1.0  0.22163  0.35534  0.27062  1.0000
  Ti  Ti64      1.0  0.23443  0.45603  0.37799  1.0000
  Ti  Ti65      1.0  0.50181  0.32427  0.93785  1.0000
  Ti  Ti66      1.0  0.94610  0.07982  0.19710  1.0000
  Ti  Ti67      1.0  0.79954  0.83868  0.63441  1.0000
  Ti  Ti68      1.0  0.35938  0.29809  0.10483  1.0000
  Ti  Ti69      1.0  0.40686  0.40081  0.76152  1.0000
  Ti  Ti70      1.0  0.42522  0.85988  0.90703  1.0000
  Ti  Ti71      1.0  0.68856  0.63007  0.92734  1.0000
  Ti  Ti72      1.0  0.29674  0.78285  0.24726  1.0000
  Ti  Ti73      1.0  0.05291  0.10363  0.14812  1.0000
  Ti  Ti74      1.0  0.10019  0.03068  0.92266  1.0000
  Ti  Ti75      1.0  0.38993  0.69222  0.15007  1.0000
  Ti  Ti76      1.0  0.89828  0.54734  0.53280  1.0000
  Ti  Ti77      1.0  0.42857  0.56496  0.93706  1.0000
  Ti  Ti78      1.0  0.72639  0.20754  0.26453  1.0000
  Ti  Ti79      1.0  0.13958  0.72406  0.69852  1.0000
  Ti  Ti80      1.0  0.84733  0.82532  0.46802  1.0000
  Ti  Ti81      1.0  0.61117  0.39616  0.78440  1.0000
  Ti  Ti82      1.0  0.14416  0.05786  0.64940  1.0000
  Ti  Ti83      1.0  0.74602  0.34955  0.44556  1.0000
  Ti  Ti84      1.0  0.60156  0.58501  0.55785  1.0000
  Ti  Ti85      1.0  0.27603  0.01874  0.45090  1.0000
  Ti  Ti86      1.0  0.42623  0.62691  0.48165  1.0000
  Ti  Ti87      1.0  0.01866  0.80819  0.76310  1.0000
  Ti  Ti88      1.0  0.72862  0.98159  0.11232  1.0000
  Ti  Ti89      1.0  0.59760  0.35095  0.93001  1.0000
  Ti  Ti90      1.0  0.66365  0.05401  0.53250  1.0000
  Ti  Ti91      1.0  0.79854  0.45287  0.41392  1.0000
  Ti  Ti92      1.0  0.86157  0.24097  0.13734  1.0000
  Ti  Ti93      1.0  0.01431  0.32204  0.59234  1.0000
  Ti  Ti94      1.0  0.16009  0.25689  0.93859  1.0000
  Ti  Ti95      1.0  0.55141  0.77315  0.64468  1.0000
  Ti  Ti96      1.0  0.69024  0.00859  0.73821  1.0000
  I   I1        1.0  0.06663  0.81743  0.36141  1.0000
  I   I2        1.0  0.35621  0.87379  0.29329  1.0000
  I   I3        1.0  0.35313  0.71106  0.15328  1.0000
  I   I4        1.0  0.58413  0.65149  0.14653  1.0000
  I   I5        1.0  0.16082  0.12534  0.06594  1.0000
  I   I6        1.0  0.11235  0.75909  0.15759  1.0000
  I   I7        1.0  0.22380  0.72028  0.43653  1.0000
  I   I8        1.0  0.67157  0.37968  0.55751  1.0000
  I   I9        1.0  0.15354  0.94041  0.45674  1.0000
  I   I10       1.0  0.87127  0.02628  0.00401  1.0000
  I   I11       1.0  0.40188  0.74659  0.59813  1.0000
  I   I12       1.0  0.80934  0.33880  0.59771  1.0000
  I   I13       1.0  0.37371  0.58878  0.18504  1.0000
  I   I14       1.0  0.22103  0.38464  0.29742  1.0000
  I   I15       1.0  0.43318  0.59203  0.96895  1.0000
  I   I16       1.0  0.88305  0.05310  0.40165  1.0000
  I   I17       1.0  0.89733  0.22641  0.11968  1.0000
  I   I18       1.0  0.18366  0.48810  0.42372  1.0000
  I   I19       1.0  0.24450  0.34155  0.22148  1.0000
  I   I20       1.0  0.41311  0.76842  0.52134  1.0000
  I   I21       1.0  0.27122  0.69119  0.47035  1.0000
  I   I22       1.0  0.61687  0.42119  0.74986  1.0000
  I   I23       1.0  0.75881  0.98426  0.09534  1.0000
  I   I24       1.0  0.43190  0.82609  0.88712  1.0000
  I   I25       1.0  0.14585  0.00851  0.82269  1.0000
  I   I26       1.0  0.40667  0.66190  0.01706  1.0000
  I   I27       1.0  0.92633  0.47936  0.04287  1.0000
  I   I28       1.0  0.16405  0.32571  0.02563  1.0000
  I   I29       1.0  0.74735  0.19361  0.31359  1.0000
  I   I30       1.0  0.70663  0.57460  0.44016  1.0000
  I   I31       1.0  0.84607  0.80810  0.52448  1.0000
  I   I32       1.0  0.63128  0.39154  0.84066  1.0000
  I   I33       1.0  0.15993  0.70273  0.65259  1.0000
  I   I34       1.0  0.94530  0.47974  0.14591  1.0000
  I   I35       1.0  0.59834  0.61290  0.60210  1.0000
  I   I36       1.0  0.64532  0.60070  0.79687  1.0000
  I   I37       1.0  0.29147  0.03912  0.47661  1.0000
  I   I38       1.0  0.75625  0.17111  0.03962  1.0000
  I   I39       1.0  0.30212  0.98298  0.44170  1.0000
  I   I40       1.0  0.29499  0.42944  0.17667  1.0000
  I   I41       1.0  0.19255  0.59819  0.69912  1.0000
  I   I42       1.0  0.92888  0.02542  0.44696  1.0000
  I   I43       1.0  0.87335  0.72889  0.96850  1.0000
  I   I44       1.0  0.71945  0.34989  0.32591  1.0000
  I   I45       1.0  0.75849  0.37043  0.40921  1.0000
  I   I46       1.0  0.52673  0.80026  0.68079  1.0000
  I   I47       1.0  0.06711  0.77154  0.45118  1.0000
  I   I48       1.0  0.08186  0.29428  0.91455  1.0000
  I   I49       1.0  0.38431  0.67408  0.09486  1.0000
  I   I50       1.0  0.67965  0.50750  0.78006  1.0000
  I   I51       1.0  0.34635  0.93067  0.29144  1.0000
  I   I52       1.0  0.82760  0.86166  0.46374  1.0000
  I   I53       1.0  0.63385  0.63833  0.09922  1.0000
  I   I54       1.0  0.08922  0.79852  0.24325  1.0000
  I   I55       1.0  0.43252  0.64227  0.42802  1.0000
  I   I56       1.0  0.15977  0.38985  0.40002  1.0000
  I   I57       1.0  0.54598  0.74485  0.62915  1.0000
  I   I58       1.0  0.79362  0.14183  0.86255  1.0000
  I   I59       1.0  0.79873  0.96418  0.78558  1.0000
  I   I60       1.0  0.49281  0.89895  0.50633  1.0000
  I   I61       1.0  0.45963  0.55216  0.27356  1.0000
  I   I62       1.0  0.36579  0.55752  0.27081  1.0000
  I   I63       1.0  0.73148  0.86686  0.74818  1.0000
  I   I64       1.0  0.89946  0.91702  0.68887  1.0000
  I   I65       1.0  0.89434  0.00356  0.40241  1.0000
  I   I66       1.0  0.19548  0.34469  0.09909  1.0000
  I   I67       1.0  0.58436  0.94876  0.37611  1.0000
  I   I68       1.0  0.68060  0.87322  0.69966  1.0000
  I   I69       1.0  0.32892  0.43153  0.74984  1.0000
  I   I70       1.0  0.40152  0.89067  0.92956  1.0000
  I   I71       1.0  0.30474  0.91728  0.26543  1.0000
  I   I72       1.0  0.31405  0.75582  0.20200  1.0000
  I   I73       1.0  0.20152  0.77957  0.18383  1.0000
  I   I74       1.0  0.37745  0.40108  0.80057  1.0000
  I   I75       1.0  0.42141  0.36465  0.76881  1.0000
  I   I76       1.0  0.39456  0.59115  0.90876  1.0000
  I   I77       1.0  0.45895  0.52705  0.94984  1.0000
  I   I78       1.0  0.85516  0.04342  0.91274  1.0000
  I   I79       1.0  0.95271  0.89855  0.60482  1.0000
  I   I80       1.0  0.91161  0.02497  0.61257  1.0000
  I   I81       1.0  0.79759  0.48177  0.97984  1.0000
  I   I82       1.0  0.16707  0.02175  0.63125  1.0000
  I   I83       1.0  0.67909  0.38930  0.35496  1.0000
  I   I84       1.0  0.57249  0.58320  0.52701  1.0000
  I   I85       1.0  0.25641  0.02198  0.50111  1.0000
  I   I86       1.0  0.15681  0.32939  0.12348  1.0000
  I   I87       1.0  0.78333  0.18986  0.87542  1.0000
  I   I88       1.0  0.77838  0.13626  0.95725  1.0000
  I   I89       1.0  0.62596  0.56538  0.83372  1.0000
  I   I90       1.0  0.19925  0.55659  0.62350  1.0000
  I   I91       1.0  0.80906  0.43803  0.35458  1.0000
  I   I92       1.0  0.84732  0.26902  0.09922  1.0000
  I   I93       1.0  0.33769  0.43346  0.19932  1.0000
  I   I94       1.0  0.14531  0.24396  0.99041  1.0000
  I   I95       1.0  0.19409  0.49223  0.20211  1.0000
  I   I96       1.0  0.16755  0.42112  0.76605  1.0000
  I   I97       1.0  0.06900  0.95158  0.44749  1.0000
  I   I98       1.0  0.87112  0.04491  0.71291  1.0000
  I   I99       1.0  0.67210  0.55696  0.75618  1.0000
  I   I100      1.0  0.33905  0.78081  0.86391  1.0000
  I   I101      1.0  0.70479  0.99618  0.06278  1.0000
  I   I102      1.0  0.85675  0.28131  0.59384  1.0000
  I   I103      1.0  0.44774  0.59838  0.53455  1.0000
  I   I104      1.0  0.83396  0.67680  0.61356  1.0000
  I   I105      1.0  0.49542  0.70772  0.92776  1.0000
  I   I106      1.0  0.44875  0.16629  0.97185  1.0000
  I   I107      1.0  0.75093  0.18609  0.94069  1.0000
  I   I108      1.0  0.40714  0.14768  0.98393  1.0000
  I   I109      1.0  0.47788  0.58084  0.92766  1.0000
  I   I110      1.0  0.44832  0.58299  0.19385  1.0000
  I   I111      1.0  0.72491  0.86380  0.65430  1.0000
  I   I112      1.0  0.22936  0.48706  0.40591  1.0000
  I   I113      1.0  0.52804  0.33588  0.94405  1.0000
  I   I114      1.0  0.69230  0.03522  0.48405  1.0000
  I   I115      1.0  0.83218  0.81036  0.63180  1.0000
  I   I116      1.0  0.79450  0.86605  0.59536  1.0000
  I   I117      1.0  0.38635  0.30050  0.13739  1.0000
  I   I118      1.0  0.68748  0.02921  0.68704  1.0000
  I   I119      1.0  0.77260  0.83000  0.61819  1.0000
  I   I120      1.0  0.09328  0.75534  0.36056  1.0000
  I   I121      1.0  0.03629  0.08571  0.16605  1.0000
  I   I122      1.0  0.09548  0.02964  0.85272  1.0000
  I   I123      1.0  0.42882  0.67528  0.13280  1.0000
  I   I124      1.0  0.69156  0.54678  0.39169  1.0000
  I   I125      1.0  0.89742  0.57994  0.53474  1.0000
  I   I126      1.0  0.74028  0.21741  0.21001  1.0000
  I   I127      1.0  0.98729  0.88433  0.50939  1.0000
  I   I128      1.0  0.37403  0.77039  0.79132  1.0000
  I   I129      1.0  0.27276  0.89428  0.29537  1.0000
  I   I130      1.0  0.59690  0.57524  0.42743  1.0000
  I   I131      1.0  0.12111  0.04754  0.67473  1.0000
  I   I132      1.0  0.89117  0.50854  0.10780  1.0000
  I   I133      1.0  0.82547  0.14242  0.94165  1.0000
  I   I134      1.0  0.81496  0.51215  0.57767  1.0000
  I   I135      1.0  0.97849  0.04754  0.19835  1.0000
  I   I136      1.0  0.07039  0.67522  0.06758  1.0000
  I   I137      1.0  0.23001  0.25561  0.45731  1.0000
  I   I138      1.0  0.58579  0.32668  0.93563  1.0000
  I   I139      1.0  0.81745  0.44036  0.46642  1.0000
  I   I140      1.0  0.94908  0.09088  0.25963  1.0000
  I   I141      1.0  0.04841  0.29432  0.58990  1.0000
  I   I142      1.0  0.11859  0.24245  0.91217  1.0000
  I   I143      1.0  0.02816  0.96251  0.54586  1.0000
  I   I144      1.0  0.21836  0.41257  0.80460  1.0000
  I   I145      1.0  0.91619  0.05513  0.67436  1.0000
  I   I146      1.0  0.63780  0.52568  0.70448  1.0000
  I   I147      1.0  0.01325  0.97205  0.45789  1.0000
  I   I148      1.0  0.19090  0.27103  0.38419  1.0000
  I   I149      1.0  0.86418  0.33060  0.60222  1.0000
  I   I150      1.0  0.16515  0.16909  0.10942  1.0000
  I   I151      1.0  0.82722  0.72329  0.57134  1.0000
  I   I152      1.0  0.23927  0.67830  0.48618  1.0000
  I   I153      1.0  0.17197  0.90911  0.55354  1.0000
  I   I154      1.0  0.35452  0.75856  0.55904  1.0000
  I   I155      1.0  0.41048  0.72534  0.50446  1.0000
  I   I156      1.0  0.52613  0.91202  0.42473  1.0000
  I   I157      1.0  0.45151  0.55217  0.87837  1.0000
  I   I158      1.0  0.19009  0.35465  0.26515  1.0000
  I   I159      1.0  0.62383  0.17477  0.76790  1.0000
  I   I160      1.0  0.26425  0.44502  0.35346  1.0000
  I   I161      1.0  0.64446  0.07535  0.58037  1.0000
  I   I162      1.0  0.20705  0.46920  0.33500  1.0000
  I   I163      1.0  0.58132  0.93621  0.26458  1.0000
  I   I164      1.0  0.17046  0.47811  0.26722  1.0000
  I   I165      1.0  0.20254  0.37154  0.49614  1.0000
  I   I166      1.0  0.69454  0.97387  0.72918  1.0000
  I   I167      1.0  0.58434  0.42492  0.82448  1.0000
  I   I168      1.0  0.06216  0.17768  0.93482  1.0000
  I   I169      1.0  0.06797  0.03049  0.93177  1.0000
  I   I170      1.0  0.07694  0.06790  0.93793  1.0000
  I   I171      1.0  0.21215  0.75650  0.10356  1.0000
  I   I172      1.0  0.86283  0.55277  0.52752  1.0000
  I   I173      1.0  0.61593  0.67363  0.44090  1.0000
  I   I174      1.0  0.75069  0.55210  0.38236  1.0000
  I   I175      1.0  0.91880  0.03958  0.33781  1.0000
  I   I176      1.0  0.80142  0.52312  0.05424  1.0000
  I   I177      1.0  0.17114  0.72651  0.73009  1.0000
  I   I178      1.0  0.16302  0.06239  0.69629  1.0000
  I   I179      1.0  0.68738  0.34539  0.39779  1.0000
  I   I180      1.0  0.21992  0.04774  0.34567  1.0000
  I   I181      1.0  0.39845  0.19968  0.02497  1.0000
  I   I182      1.0  0.50047  0.57069  0.54383  1.0000
  I   I183      1.0  0.05101  0.80578  0.76295  1.0000
  I   I184      1.0  0.74968  0.95061  0.14468  1.0000
  I   I185      1.0  0.58948  0.38576  0.94672  1.0000
  I   I186      1.0  0.12219  0.65482  0.09623  1.0000
  I   I187      1.0  0.85686  0.21460  0.11161  1.0000
  I   I188      1.0  0.33020  0.38211  0.17850  1.0000
  I   I189      1.0  0.99771  0.81608  0.70569  1.0000
  I   I190      1.0  0.15839  0.47422  0.15437  1.0000
  I   I191      1.0  0.74200  0.99206  0.50364  1.0000
  I   I192      1.0  0.06230  0.93395  0.52581  1.0000
  I   I193      1.0  0.71334  0.18666  0.23173  1.0000
  I   I194      1.0  0.71702  0.82494  0.74712  1.0000
  I   I195      1.0  0.04605  0.00503  0.49387  1.0000
  I   I196      1.0  0.32188  0.81459  0.78490  1.0000
  I   I197      1.0  0.92408  0.68765  0.00503  1.0000
  I   I198      1.0  0.14398  0.17175  0.01052  1.0000
  I   I199      1.0  0.81551  0.47612  0.08322  1.0000
  I   I200      1.0  0.71870  0.38314  0.59080  1.0000
  I   I201      1.0  0.17148  0.97343  0.47355  1.0000
  I   I202      1.0  0.84925  0.91600  0.69629  1.0000
  I   I203      1.0  0.38418  0.43306  0.73343  1.0000
  I   I204      1.0  0.40393  0.21081  0.94030  1.0000
  I   I205      1.0  0.36851  0.60209  0.27495  1.0000
  I   I206      1.0  0.26197  0.79842  0.76387  1.0000
  I   I207      1.0  0.48350  0.55259  0.00351  1.0000
  I   I208      1.0  0.86922  0.94016  0.76704  1.0000
  I   I209      1.0  0.66725  0.01951  0.53084  1.0000
  I   I210      1.0  0.14179  0.75351  0.68560  1.0000
  I   I211      1.0  0.43106  0.88270  0.86424  1.0000
  I   I212      1.0  0.25064  0.32988  0.31360  1.0000
  I   I213      1.0  0.42017  0.39952  0.69701  1.0000
  I   I214      1.0  0.17573  0.43383  0.86544  1.0000
  I   I215      1.0  0.34664  0.89592  0.37343  1.0000
  I   I216      1.0  0.01290  0.33519  0.52985  1.0000
  I   I217      1.0  0.10800  0.02930  0.98771  1.0000
  I   I218      1.0  0.38704  0.72295  0.17165  1.0000
  I   I219      1.0  0.07447  0.08067  0.10132  1.0000
  I   I220      1.0  0.40835  0.54880  0.96236  1.0000
  I   I221      1.0  0.65888  0.68877  0.43527  1.0000
  I   I222      1.0  0.91291  0.52747  0.48044  1.0000
  I   I223      1.0  0.88320  0.98075  0.92602  1.0000
  I   I224      1.0  0.84895  0.46950  0.99225  1.0000
  I   I225      1.0  0.96643  0.93219  0.56656  1.0000
  I   I226      1.0  0.26023  0.69844  0.55879  1.0000
  I   I227      1.0  0.92269  0.44633  0.11474  1.0000
  I   I228      1.0  0.60463  0.60143  0.49816  1.0000
  I   I229      1.0  0.94087  0.72334  0.99332  1.0000
  I   I230      1.0  0.76211  0.53020  0.63769  1.0000
  I   I231      1.0  0.79648  0.19142  0.97697  1.0000
  I   I232      1.0  0.35459  0.73935  0.79059  1.0000
  I   I233      1.0  0.45755  0.75164  0.98349  1.0000
  I   I234      1.0  0.70087  0.97987  0.49435  1.0000
  I   I235      1.0  0.32050  0.79645  0.48798  1.0000
  I   I236      1.0  0.03323  0.33403  0.63455  1.0000
  I   I237      1.0  0.73150  0.51664  0.43454  1.0000
  I   I238      1.0  0.54560  0.79771  0.59636  1.0000
  I   I239      1.0  0.66386  0.02423  0.78133  1.0000
  I   I240      1.0  0.18037  0.23925  0.88906  1.0000
  I   I241      1.0  0.86725  0.07604  0.65230  1.0000
  I   I242      1.0  0.68866  0.51650  0.68407  1.0000
  I   I243      1.0  0.32668  0.32500  0.10581  1.0000
  I   I244      1.0  0.71095  0.99954  0.16681  1.0000
  I   I245      1.0  0.59798  0.69362  0.13130  1.0000
  I   I246      1.0  0.11062  0.17027  0.10047  1.0000
  I   I247      1.0  0.44929  0.64089  0.50981  1.0000
  I   I248      1.0  0.17343  0.34298  0.46471  1.0000
  I   I249      1.0  0.20859  0.90714  0.50548  1.0000
  I   I250      1.0  0.82419  0.99171  0.80207  1.0000
  I   I251      1.0  0.37107  0.77160  0.47989  1.0000
  I   I252      1.0  0.57029  0.98705  0.29149  1.0000
  I   I253      1.0  0.45549  0.54052  0.17351  1.0000
  I   I254      1.0  0.28565  0.81794  0.70337  1.0000
  I   I255      1.0  0.56240  0.19753  0.71262  1.0000
  I   I256      1.0  0.48261  0.32512  0.99418  1.0000
  I   I257      1.0  0.28295  0.03632  0.38604  1.0000
  I   I258      1.0  0.21439  0.47719  0.51480  1.0000
  I   I259      1.0  0.79346  0.84098  0.69894  1.0000
  I   I260      1.0  0.12758  0.51582  0.22403  1.0000
  I   I261      1.0  0.22007  0.33792  0.41481  1.0000
  I   I262      1.0  0.17343  0.47243  0.77839  1.0000
  I   I263      1.0  0.66605  0.66593  0.91645  1.0000
  I   I264      1.0  0.61730  0.53198  0.48954  1.0000
  I   I265      1.0  0.16730  0.99544  0.90216  1.0000
  I   I266      1.0  0.41534  0.40671  0.82189  1.0000
  I   I267      1.0  0.07677  0.09330  0.19618  1.0000
  I   I268      1.0  0.91704  0.07648  0.18163  1.0000
  I   I269      1.0  0.69460  0.23409  0.27741  1.0000
  I   I270      1.0  0.15141  0.37846  0.04977  1.0000
  I   I271      1.0  0.90838  0.01388  0.91381  1.0000
  I   I272      1.0  0.63167  0.36299  0.76551  1.0000
  I   I273      1.0  0.00358  0.87569  0.61605  1.0000
  I   I274      1.0  0.45375  0.75677  0.87264  1.0000
  I   I275      1.0  0.15888  0.77987  0.14439  1.0000
  I   I276      1.0  0.59951  0.57244  0.61395  1.0000
  I   I277      1.0  0.16019  0.06939  0.60477  1.0000
  I   I278      1.0  0.78954  0.56349  0.66642  1.0000
  I   I279      1.0  0.33999  0.41792  0.10108  1.0000
  I   I280      1.0  0.24117  0.26514  0.34944  1.0000
  I   I281      1.0  0.50291  0.74681  0.91236  1.0000
  I   I282      1.0  0.07888  0.70982  0.12791  1.0000
  I   I283      1.0  0.33743  0.72359  0.52440  1.0000
  I   I284      1.0  0.02327  0.23503  0.93685  1.0000
  I   I285      1.0  0.00393  0.79503  0.81356  1.0000
  I   I286      1.0  0.58151  0.76264  0.67572  1.0000
  I   I287      1.0  0.26765  0.77802  0.25506  1.0000
  I   I288      1.0  0.13805  0.28288  0.88331  1.0000
  I   I289      1.0  0.29165  0.77023  0.55118  1.0000
  I   I290      1.0  0.70843  0.98097  0.57972  1.0000
  I   I291      1.0  0.29613  0.92647  0.34728  1.0000
  I   I292      1.0  0.23974  0.21422  0.38722  1.0000
  I   I293      1.0  0.62963  0.62176  0.17180  1.0000
  I   I294      1.0  0.05922  0.80557  0.16753  1.0000
  I   I295      1.0  0.39296  0.63394  0.47124  1.0000
  I   I296      1.0  0.66943  0.42507  0.61941  1.0000
  I   I297      1.0  0.12424  0.95250  0.52879  1.0000
  I   I298      1.0  0.91015  0.71568  0.91028  1.0000
  I   I299      1.0  0.86756  0.93471  0.62570  1.0000
  I   I300      1.0  0.99421  0.30272  0.60643  1.0000
  I   I301      1.0  0.60309  0.21858  0.73871  1.0000
  I   I302      1.0  0.42140  0.53797  0.24292  1.0000
  I   I303      1.0  0.52457  0.29058  0.93137  1.0000
  I   I304      1.0  0.25244  0.44217  0.44952  1.0000
  I   I305      1.0  0.83778  0.96822  0.70724  1.0000
  I   I306      1.0  0.50108  0.61301  0.49273  1.0000
  I   I307      1.0  0.26596  0.02905  0.29665  1.0000
  I   I308      1.0  0.23288  0.53557  0.70130  1.0000
  I   I309      1.0  0.25541  0.73789  0.50076  1.0000
  I   I310      1.0  0.43785  0.68137  0.03573  1.0000
  I   I311      1.0  0.66797  0.61370  0.91182  1.0000
  I   I312      1.0  0.03960  0.79040  0.37511  1.0000
  I   I313      1.0  0.03313  0.13618  0.17361  1.0000
  I   I314      1.0  0.12411  0.04515  0.90297  1.0000
  I   I315      1.0  0.39374  0.67848  0.21688  1.0000
  I   I316      1.0  0.90916  0.52712  0.59221  1.0000
  I   I317      1.0  0.95267  0.10024  0.15839  1.0000
  I   I318      1.0  0.60080  0.73083  0.45428  1.0000
  I   I319      1.0  0.10332  0.73809  0.70556  1.0000
  I   I320      1.0  0.32364  0.77778  0.73604  1.0000
  I   I321      1.0  0.87902  0.69157  0.59268  1.0000
  I   I322      1.0  0.60125  0.62311  0.86168  1.0000
  I   I323      1.0  0.70534  0.38266  0.44229  1.0000
  I   I324      1.0  0.63197  0.55041  0.54582  1.0000
  I   I325      1.0  0.25354  0.07548  0.33564  1.0000
  I   I326      1.0  0.47250  0.62178  0.59004  1.0000
  I   I327      1.0  0.77361  0.34519  0.49000  1.0000
  I   I328      1.0  0.80624  0.14344  0.01545  1.0000
  I   I329      1.0  0.59257  0.35629  0.86557  1.0000
  I   I330      1.0  0.64501  0.07433  0.47655  1.0000
  I   I331      1.0  0.00455  0.84297  0.75901  1.0000
  I   I332      1.0  0.69717  0.03631  0.56570  1.0000
  I   I333      1.0  0.59486  0.60821  0.76103  1.0000
  I   I334      1.0  0.18850  0.25940  0.96228  1.0000
  I   I335      1.0  0.37144  0.29866  0.04475  1.0000
  I   I336      1.0  0.71703  0.99991  0.77038  1.0000
  I   I337      1.0  0.43637  0.63356  0.07547  1.0000
  I   I338      1.0  0.18170  0.55009  0.72227  1.0000
  I   I339      1.0  0.32053  0.86193  0.26322  1.0000
  I   I340      1.0  0.87874  0.82883  0.49005  1.0000
  I   I341      1.0  0.02181  0.19270  0.00186  1.0000
  I   I342      1.0  0.08800  0.75266  0.25941  1.0000
  I   I343      1.0  0.84159  0.71456  0.66927  1.0000
  I   I344      1.0  0.68054  0.36876  0.64513  1.0000
  I   I345      1.0  0.16069  0.95994  0.56742  1.0000
  I   I346      1.0  0.44673  0.85418  0.95416  1.0000
  I   I347      1.0  0.82791  0.95587  0.85686  1.0000
  I   I348      1.0  0.49221  0.90403  0.38295  1.0000
  I   I349      1.0  0.57883  0.21248  0.81281  1.0000
  I   I350      1.0  0.40742  0.59296  0.24638  1.0000
  I   I351      1.0  0.27516  0.82246  0.82240  1.0000
  I   I352      1.0  0.21798  0.43509  0.39750  1.0000
  I   I353      1.0  0.47415  0.34842  0.89706  1.0000
  I   I354      1.0  0.42951  0.59380  0.45590  1.0000
  I   I355      1.0  0.53501  0.96615  0.32047  1.0000
  I   I356      1.0  0.35120  0.27203  0.10795  1.0000
  I   I357      1.0  0.38039  0.37875  0.71727  1.0000
  I   I358      1.0  0.85019  0.32071  0.51707  1.0000
  I   I359      1.0  0.69879  0.61811  0.98937  1.0000
  I   I360      1.0  0.31822  0.75575  0.28547  1.0000
  I   I361      1.0  0.15753  0.81754  0.09086  1.0000
  I   I362      1.0  0.12605  0.98331  0.90201  1.0000
  I   I363      1.0  0.35839  0.40969  0.65910  1.0000
  I   I364      1.0  0.76258  0.46457  0.40720  1.0000
  I   I365      1.0  0.61755  0.67338  0.20858  1.0000
  I   I366      1.0  0.62915  0.69524  0.53317  1.0000
  I   I367      1.0  0.13396  0.70754  0.75664  1.0000
  I   I368      1.0  0.85720  0.80971  0.41398  1.0000
  I   I369      1.0  0.31482  0.87056  0.35701  1.0000
  I   I370      1.0  0.11404  0.99881  0.46237  1.0000
  I   I371      1.0  0.73208  0.34023  0.50131  1.0000
  I   I372      1.0  0.05558  0.20564  0.03486  1.0000
  I   I373      1.0  0.25374  0.01171  0.40869  1.0000
  I   I374      1.0  0.78539  0.56694  0.57764  1.0000
  I   I375      1.0  0.75203  0.32263  0.41088  1.0000
  I   I376      1.0  0.70699  0.63112  0.87130  1.0000
  I   I377      1.0  0.63150  0.33092  0.91907  1.0000
  I   I378      1.0  0.11317  0.70294  0.03927  1.0000
  I   I379      1.0  0.80358  0.48075  0.38594  1.0000
  I   I380      1.0  0.84638  0.25973  0.19925  1.0000
  I   I381      1.0  0.47093  0.95043  0.43631  1.0000
  I   I382      1.0  0.13729  0.28803  0.97635  1.0000
  I   I383      1.0  0.31946  0.75733  0.45600  1.0000
  I   I384      1.0  0.29289  0.81737  0.24126  1.0000
