data_image0
_chemical_formula_structural       Ti96I384
_chemical_formula_sum              "Ti96 I384"
_cell_length_a       61.8913
_cell_length_b       61.6909
_cell_length_c       30.0621
_cell_angle_alpha    88.7757
_cell_angle_beta     88.7757
_cell_angle_gamma    62.1586

_space_group_name_H-M_alt    "P 1"
_space_group_IT_number       1

loop_
  _space_group_symop_operation_xyz
  'x, y, z'

loop_
  _atom_site_type_symbol
  _atom_site_label
  _atom_site_symmetry_multiplicity
  _atom_site_fract_x
  _atom_site_fract_y
  _atom_site_fract_z
  _atom_site_occupancy
  Ti  Ti1       1.0  0.63174  0.97784  0.55438  1.0000
  Ti  Ti2       1.0  0.43490  0.15780  0.36192  1.0000
  Ti  Ti3       1.0  0.01958  0.56821  0.02238  1.0000
  Ti  Ti4       1.0  0.47466  0.47566  0.71790  1.0000
  Ti  Ti5       1.0  0.17748  0.76037  0.13287  1.0000
  Ti  Ti6       1.0  0.53885  0.07842  0.95840  1.0000
  Ti  Ti7       1.0  0.05068  0.90160  0.48510  1.0000
  Ti  Ti8       1.0  0.17666  0.55411  0.23092  1.0000
  Ti  Ti9       1.0  0.13989  0.91098  0.82008  1.0000
  Ti  Ti10      1.0  0.03043  0.87559  0.73930  1.0000
  Ti  Ti11      1.0  0.36299  0.40380  0.01305  1.0000
  Ti  Ti12      1.0  0.16218  0.73646  0.55061  1.0000
  Ti  Ti13      1.0  0.35765  0.41887  0.50089  1.0000
  Ti  Ti14      1.0  0.13386  0.04563  0.46298  1.0000
  Ti  Ti15      1.0  0.48083  0.79055  0.98332  1.0000
  Ti  Ti16      1.0  0.97908  0.45473  0.77327  1.0000
  Ti  Ti17      1.0  0.18819  0.22562  0.21189  1.0000
  Ti  Ti18      1.0  0.72356  0.57873  0.68324  1.0000
  Ti  Ti19      1.0  0.78812  0.02938  0.34359  1.0000
  Ti  Ti20      1.0  0.35539  0.16919  0.67549  1.0000
  Ti  Ti21      1.0  0.75046  0.29695  0.24476  1.0000
  Ti  Ti22      1.0  0.59320  0.84694  0.32630  1.0000
  Ti  Ti23      1.0  0.62644  0.85549  0.96804  1.0000
  Ti  Ti24      1.0  0.25925  0.84937  0.59535  1.0000
  Ti  Ti25      1.0  0.26512  0.28679  0.78297  1.0000
  Ti  Ti26      1.0  0.97096  0.26230  0.33798  1.0000
  Ti  Ti27      1.0  0.25274  0.49322  0.78519  1.0000
  Ti  Ti28      1.0  0.73618  0.49325  0.07879  1.0000
  Ti  Ti29      1.0  0.99342  0.10976  0.16737  1.0000
  Ti  Ti30      1.0  0.89948  0.42529  0.14718  1.0000
  Ti  Ti31      1.0  0.68614  0.33590  0.51565  1.0000
  Ti  Ti32      1.0  0.70610  0.07793  0.89122  1.0000
  Ti  Ti33      1.0  0.38106  0.81702  0.32454  1.0000
  Ti  Ti34      1.0  0.61491  0.81222  0.74012  1.0000
  Ti  Ti35      1.0  0.81275  0.34472  0.05088  1.0000
  Ti  Ti36      1.0  0.08227  0.51926  0.60314  1.0000
  Ti  Ti37      1.0  0.08362  0.19157  0.11901  1.0000
  Ti  Ti38      1.0  0.47895  0.25307  0.59777  1.0000
  Ti  Ti39      1.0  0.40144  0.29508  0.12180  1.0000
  Ti  Ti40      1.0  0.72592  0.83878  0.44327  1.0000
  Ti  Ti41      1.0  0.48124  0.69242  0.39350  1.0000
  Ti  Ti42      1.0  0.88022  0.85889  0.74733  1.0000
  Ti  Ti43      1.0  0.32706  0.09790  0.06525  1.0000
  Ti  Ti44      1.0  0.80381  0.64345  0.28733  1.0000
  Ti  Ti45      1.0  0.47819  0.65836  0.70500  1.0000
  Ti  Ti46      1.0  0.18094  0.03443  0.12087  1.0000
  Ti  Ti47      1.0  0.81974  0.09652  0.08015  1.0000
  Ti  Ti48      1.0  0.38511  0.56285  0.25319  1.0000
  Ti  Ti49      1.0  0.63307  0.02726  0.53272  1.0000
  Ti  Ti50      1.0  0.75614  0.18202  0.90843  1.0000
  Ti  Ti51      1.0  0.48517  0.17154  0.39806  1.0000
  Ti  Ti52      1.0  0.42779  0.52142  0.60587  1.0000
  Ti  Ti53      1.0  0.23475  0.75652  0.12837  1.0000
  Ti  Ti54      1.0  0.51213  0.05458  0.93684  1.0000
  Ti  Ti55      1.0  0.06953  0.89778  0.38298  1.0000
  Ti  Ti56      1.0  0.15961  0.59221  0.31610  1.0000
  Ti  Ti57      1.0  0.11369  0.95366  0.69423  1.0000
  Ti  Ti58      1.0  0.28740  0.14018  0.92394  1.0000
  Ti  Ti59      1.0  0.01285  0.85842  0.84875  1.0000
  Ti  Ti60      1.0  0.20808  0.74557  0.61878  1.0000
  Ti  Ti61      1.0  0.45306  0.76337  0.89050  1.0000
  Ti  Ti62      1.0  0.28330  0.42687  0.50704  1.0000
  Ti  Ti63      1.0  0.15374  0.01602  0.35114  1.0000
  Ti  Ti64      1.0  0.77011  0.54061  0.62519  1.0000
  Ti  Ti65      1.0  0.97074  0.52695  0.79634  1.0000
  Ti  Ti66      1.0  0.55846  0.23746  0.80810  1.0000
  Ti  Ti67      1.0  0.84426  0.01801  0.30175  1.0000
  Ti  Ti68      1.0  0.31372  0.19558  0.58404  1.0000
  Ti  Ti69      1.0  0.66887  0.34353  0.17594  1.0000
  Ti  Ti70      1.0  0.61704  0.77229  0.30305  1.0000
  Ti  Ti71      1.0  0.59893  0.90216  0.02824  1.0000
  Ti  Ti72      1.0  0.88869  0.85972  0.11177  1.0000
  Ti  Ti73      1.0  0.26768  0.53414  0.71045  1.0000
  Ti  Ti74      1.0  0.26647  0.34457  0.84206  1.0000
  Ti  Ti75      1.0  0.00302  0.18931  0.32848  1.0000
  Ti  Ti76      1.0  0.87007  0.41924  0.25261  1.0000
  Ti  Ti77      1.0  0.71670  0.54785  0.09861  1.0000
  Ti  Ti78      1.0  0.98697  0.06112  0.28171  1.0000
  Ti  Ti79      1.0  0.31402  0.81301  0.25470  1.0000
  Ti  Ti80      1.0  0.69691  0.41898  0.47237  1.0000
  Ti  Ti81      1.0  0.66474  0.05126  0.94584  1.0000
  Ti  Ti82      1.0  0.67598  0.75498  0.76079  1.0000
  Ti  Ti83      1.0  0.75793  0.37820  0.98673  1.0000
  Ti  Ti84      1.0  0.15302  0.47147  0.64243  1.0000
  Ti  Ti85      1.0  0.06984  0.22987  0.04107  1.0000
  Ti  Ti86      1.0  0.49919  0.23284  0.73130  1.0000
  Ti  Ti87      1.0  0.46640  0.25495  0.08643  1.0000
  Ti  Ti88      1.0  0.79282  0.80254  0.43832  1.0000
  Ti  Ti89      1.0  0.51415  0.72252  0.45728  1.0000
  Ti  Ti90      1.0  0.85540  0.89134  0.60522  1.0000
  Ti  Ti91      1.0  0.40585  0.65181  0.73217  1.0000
  Ti  Ti92      1.0  0.91003  0.21697  0.56030  1.0000
  Ti  Ti93      1.0  0.77919  0.62884  0.17999  1.0000
  Ti  Ti94      1.0  0.38664  0.57288  0.14079  1.0000
  Ti  Ti95      1.0  0.23742  0.99602  0.07739  1.0000
  Ti  Ti96      1.0  0.84933  0.10843  0.98755  1.0000
  I   I1        1.0  0.88398  0.08259  0.93397  1.0000
  I   I2        1.0  0.52824  0.14325  0.34802  1.0000
  I   I3        1.0  0.62988  0.00804  0.62811  1.0000
  I   I4        1.0  0.18496  0.75691  0.22577  1.0000
  I   I5        1.0  0.50636  0.09367  0.01967  1.0000
  I   I6        1.0  0.53899  0.01625  0.99426  1.0000
  I   I7        1.0  0.15190  0.57256  0.38541  1.0000
  I   I8        1.0  0.12468  0.63914  0.33163  1.0000
  I   I9        1.0  0.11299  0.90916  0.74791  1.0000
  I   I10       1.0  0.02681  0.90981  0.68132  1.0000
  I   I11       1.0  0.36959  0.39005  0.92802  1.0000
  I   I12       1.0  0.14997  0.74146  0.10713  1.0000
  I   I13       1.0  0.31670  0.44008  0.44654  1.0000
  I   I14       1.0  0.15921  0.99289  0.43341  1.0000
  I   I15       1.0  0.47594  0.79937  0.88362  1.0000
  I   I16       1.0  0.00714  0.47652  0.80399  1.0000
  I   I17       1.0  0.56524  0.25011  0.88777  1.0000
  I   I18       1.0  0.77260  0.57419  0.67833  1.0000
  I   I19       1.0  0.28887  0.21489  0.66023  1.0000
  I   I20       1.0  0.32684  0.39608  0.04401  1.0000
  I   I21       1.0  0.65777  0.35136  0.09291  1.0000
  I   I22       1.0  0.55247  0.92781  0.00313  1.0000
  I   I23       1.0  0.65139  0.86419  0.04781  1.0000
  I   I24       1.0  0.61841  0.77809  0.21615  1.0000
  I   I25       1.0  0.31452  0.31825  0.83016  1.0000
  I   I26       1.0  0.99264  0.27348  0.26588  1.0000
  I   I27       1.0  0.31778  0.51523  0.68844  1.0000
  I   I28       1.0  0.67579  0.56358  0.14268  1.0000
  I   I29       1.0  0.03183  0.03719  0.31020  1.0000
  I   I30       1.0  0.84847  0.39210  0.28251  1.0000
  I   I31       1.0  0.73289  0.42630  0.50443  1.0000
  I   I32       1.0  0.62209  0.05768  0.91550  1.0000
  I   I33       1.0  0.32811  0.77178  0.21483  1.0000
  I   I34       1.0  0.80163  0.33127  0.97542  1.0000
  I   I35       1.0  0.12046  0.51246  0.68886  1.0000
  I   I36       1.0  0.56783  0.82914  0.74722  1.0000
  I   I37       1.0  0.07178  0.15629  0.11821  1.0000
  I   I38       1.0  0.45096  0.22037  0.07497  1.0000
  I   I39       1.0  0.03912  0.23018  0.11293  1.0000
  I   I40       1.0  0.49691  0.71172  0.52718  1.0000
  I   I41       1.0  0.82844  0.87558  0.57418  1.0000
  I   I42       1.0  0.82832  0.77459  0.49041  1.0000
  I   I43       1.0  0.29036  0.10663  0.86365  1.0000
  I   I44       1.0  0.82043  0.58892  0.16488  1.0000
  I   I45       1.0  0.46367  0.61947  0.72140  1.0000
  I   I46       1.0  0.15586  0.01026  0.13044  1.0000
  I   I47       1.0  0.86680  0.10002  0.07943  1.0000
  I   I48       1.0  0.41917  0.55854  0.31052  1.0000
  I   I49       1.0  0.64879  0.04177  0.46654  1.0000
  I   I50       1.0  0.40778  0.15621  0.42928  1.0000
  I   I51       1.0  0.39051  0.18265  0.33404  1.0000
  I   I52       1.0  0.43827  0.47187  0.75396  1.0000
  I   I53       1.0  0.20186  0.80067  0.14021  1.0000
  I   I54       1.0  0.50179  0.03833  0.84950  1.0000
  I   I55       1.0  0.04728  0.94217  0.52235  1.0000
  I   I56       1.0  0.22222  0.53947  0.21181  1.0000
  I   I57       1.0  0.14087  0.95253  0.76473  1.0000
  I   I58       1.0  0.04071  0.84691  0.67043  1.0000
  I   I59       1.0  0.97992  0.88928  0.72568  1.0000
  I   I60       1.0  0.16107  0.70417  0.49983  1.0000
  I   I61       1.0  0.31684  0.43385  0.56133  1.0000
  I   I62       1.0  0.25162  0.45121  0.44402  1.0000
  I   I63       1.0  0.17747  0.04189  0.49187  1.0000
  I   I64       1.0  0.01166  0.41528  0.80603  1.0000
  I   I65       1.0  0.92627  0.55949  0.81830  1.0000
  I   I66       1.0  0.56241  0.26983  0.75077  1.0000
  I   I67       1.0  0.84378  0.02290  0.21219  1.0000
  I   I68       1.0  0.40020  0.15003  0.64240  1.0000
  I   I69       1.0  0.75752  0.29256  0.32801  1.0000
  I   I70       1.0  0.60088  0.80329  0.37351  1.0000
  I   I71       1.0  0.65835  0.83115  0.90308  1.0000
  I   I72       1.0  0.93095  0.82300  0.08933  1.0000
  I   I73       1.0  0.29628  0.49018  0.78724  1.0000
  I   I74       1.0  0.02690  0.21669  0.34224  1.0000
  I   I75       1.0  0.96126  0.22784  0.38938  1.0000
  I   I76       1.0  0.72174  0.48289  0.15410  1.0000
  I   I77       1.0  0.71335  0.59246  0.07393  1.0000
  I   I78       1.0  0.99450  0.14832  0.19650  1.0000
  I   I79       1.0  0.27330  0.84269  0.20474  1.0000
  I   I80       1.0  0.66478  0.43648  0.53430  1.0000
  I   I81       1.0  0.75263  0.07076  0.89529  1.0000
  I   I82       1.0  0.64124  0.78280  0.82180  1.0000
  I   I83       1.0  0.83124  0.30489  0.09695  1.0000
  I   I84       1.0  0.10030  0.47901  0.65291  1.0000
  I   I85       1.0  0.04676  0.27258  0.00856  1.0000
  I   I86       1.0  0.45162  0.26824  0.69039  1.0000
  I   I87       1.0  0.43646  0.26228  0.17226  1.0000
  I   I88       1.0  0.70207  0.88789  0.44599  1.0000
  I   I89       1.0  0.46562  0.69610  0.30969  1.0000
  I   I90       1.0  0.86791  0.88395  0.82824  1.0000
  I   I91       1.0  0.42520  0.68472  0.72643  1.0000
  I   I92       1.0  0.94672  0.21894  0.52316  1.0000
  I   I93       1.0  0.75515  0.60569  0.20644  1.0000
  I   I94       1.0  0.39725  0.51613  0.21382  1.0000
  I   I95       1.0  0.27360  0.99789  0.11598  1.0000
  I   I96       1.0  0.86927  0.13891  0.99280  1.0000
  I   I97       1.0  0.00636  0.54815  0.09392  1.0000
  I   I98       1.0  0.67437  0.98333  0.51759  1.0000
  I   I99       1.0  0.43303  0.20561  0.39135  1.0000
  I   I100      1.0  0.47950  0.49258  0.80074  1.0000
  I   I101      1.0  0.41356  0.51037  0.53367  1.0000
  I   I102      1.0  0.13616  0.79860  0.13448  1.0000
  I   I103      1.0  0.06824  0.86990  0.55085  1.0000
  I   I104      1.0  0.08368  0.85152  0.42260  1.0000
  I   I105      1.0  0.18526  0.90119  0.83776  1.0000
  I   I106      1.0  0.21815  0.74388  0.70070  1.0000
  I   I107      1.0  0.99832  0.82717  0.83272  1.0000
  I   I108      1.0  0.20513  0.70120  0.61179  1.0000
  I   I109      1.0  0.45986  0.83380  0.01865  1.0000
  I   I110      1.0  0.35839  0.37569  0.50880  1.0000
  I   I111      1.0  0.11434  0.02273  0.52224  1.0000
  I   I112      1.0  0.74197  0.51925  0.59750  1.0000
  I   I113      1.0  0.94048  0.50780  0.75844  1.0000
  I   I114      1.0  0.22066  0.20557  0.26862  1.0000
  I   I115      1.0  0.83369  0.02324  0.39338  1.0000
  I   I116      1.0  0.85973  0.97294  0.30610  1.0000
  I   I117      1.0  0.34400  0.15152  0.58912  1.0000
  I   I118      1.0  0.58618  0.75621  0.31006  1.0000
  I   I119      1.0  0.58011  0.87292  0.40161  1.0000
  I   I120      1.0  0.88219  0.87717  0.19387  1.0000
  I   I121      1.0  0.27481  0.48419  0.69263  1.0000
  I   I122      1.0  0.30357  0.26462  0.73350  1.0000
  I   I123      1.0  0.92582  0.29398  0.32010  1.0000
  I   I124      1.0  0.89407  0.40077  0.08165  1.0000
  I   I125      1.0  0.68232  0.56393  0.02805  1.0000
  I   I126      1.0  0.95769  0.08801  0.35484  1.0000
  I   I127      1.0  0.35721  0.79270  0.31049  1.0000
  I   I128      1.0  0.67414  0.32731  0.43926  1.0000
  I   I129      1.0  0.71059  0.05113  0.96892  1.0000
  I   I130      1.0  0.04170  0.55116  0.65111  1.0000
  I   I131      1.0  0.60624  0.85362  0.77662  1.0000
  I   I132      1.0  0.76757  0.40901  0.93917  1.0000
  I   I133      1.0  0.40856  0.28455  0.03362  1.0000
  I   I134      1.0  0.46183  0.29718  0.55556  1.0000
  I   I135      1.0  0.50120  0.20965  0.65727  1.0000
  I   I136      1.0  0.92451  0.84768  0.73844  1.0000
  I   I137      1.0  0.75535  0.84018  0.38060  1.0000
  I   I138      1.0  0.43687  0.71461  0.42940  1.0000
  I   I139      1.0  0.49610  0.64949  0.78780  1.0000
  I   I140      1.0  0.88562  0.26530  0.56998  1.0000
  I   I141      1.0  0.84281  0.60934  0.25705  1.0000
  I   I142      1.0  0.43497  0.55103  0.13850  1.0000
  I   I143      1.0  0.26343  0.96818  0.01301  1.0000
  I   I144      1.0  0.82222  0.08906  0.16848  1.0000
  I   I145      1.0  0.58678  0.05142  0.53517  1.0000
  I   I146      1.0  0.49960  0.19736  0.43449  1.0000
  I   I147      1.0  0.98848  0.58756  0.95576  1.0000
  I   I148      1.0  0.39096  0.55489  0.65461  1.0000
  I   I149      1.0  0.26001  0.76443  0.06554  1.0000
  I   I150      1.0  0.55157  0.04509  0.88168  1.0000
  I   I151      1.0  0.02842  0.91592  0.34239  1.0000
  I   I152      1.0  0.17466  0.60345  0.23202  1.0000
  I   I153      1.0  0.11356  0.93041  0.88628  1.0000
  I   I154      1.0  0.27771  0.14117  0.02238  1.0000
  I   I155      1.0  0.38800  0.38423  0.08431  1.0000
  I   I156      1.0  0.18963  0.74717  0.50317  1.0000
  I   I157      1.0  0.48413  0.77177  0.05976  1.0000
  I   I158      1.0  0.19919  0.99580  0.32983  1.0000
  I   I159      1.0  0.43870  0.72966  0.86016  1.0000
  I   I160      1.0  0.76367  0.56882  0.55289  1.0000
  I   I161      1.0  0.21786  0.20293  0.14691  1.0000
  I   I162      1.0  0.68643  0.56862  0.66940  1.0000
  I   I163      1.0  0.88819  0.01341  0.33521  1.0000
  I   I164      1.0  0.32909  0.20261  0.50077  1.0000
  I   I165      1.0  0.63697  0.33987  0.22518  1.0000
  I   I166      1.0  0.63554  0.81474  0.29557  1.0000
  I   I167      1.0  0.58590  0.86684  0.92213  1.0000
  I   I168      1.0  0.24625  0.83891  0.51959  1.0000
  I   I169      1.0  0.23282  0.32241  0.83662  1.0000
  I   I170      1.0  0.23658  0.28108  0.72794  1.0000
  I   I171      1.0  0.26085  0.44726  0.77981  1.0000
  I   I172      1.0  0.85164  0.44557  0.17421  1.0000
  I   I173      1.0  0.00351  0.05870  0.19565  1.0000
  I   I174      1.0  0.94532  0.40025  0.16768  1.0000
  I   I175      1.0  0.65238  0.35704  0.57407  1.0000
  I   I176      1.0  0.67935  0.01176  0.99458  1.0000
  I   I177      1.0  0.29425  0.80666  0.32743  1.0000
  I   I178      1.0  0.69056  0.76962  0.68976  1.0000
  I   I179      1.0  0.82705  0.37416  0.09325  1.0000
  I   I180      1.0  0.16994  0.49915  0.60871  1.0000
  I   I181      1.0  0.11995  0.16807  0.17948  1.0000
  I   I182      1.0  0.47659  0.21998  0.78793  1.0000
  I   I183      1.0  0.36807  0.33731  0.14015  1.0000
  I   I184      1.0  0.77451  0.84560  0.50783  1.0000
  I   I185      1.0  0.52942  0.68060  0.40164  1.0000
  I   I186      1.0  0.82653  0.93890  0.58759  1.0000
  I   I187      1.0  0.89745  0.18624  0.52929  1.0000
  I   I188      1.0  0.75940  0.64731  0.29060  1.0000
  I   I189      1.0  0.51052  0.62677  0.65347  1.0000
  I   I190      1.0  0.14254  0.07614  0.11518  1.0000
  I   I191      1.0  0.76035  0.13619  0.89240  1.0000
  I   I192      1.0  0.38832  0.60043  0.21849  1.0000
  I   I193      1.0  0.64084  0.05660  0.59061  1.0000
  I   I194      1.0  0.70969  0.20680  0.89074  1.0000
  I   I195      1.0  0.02937  0.60026  0.05267  1.0000
  I   I196      1.0  0.45177  0.47452  0.62529  1.0000
  I   I197      1.0  0.32048  0.11747  0.14051  1.0000
  I   I198      1.0  0.48862  0.10277  0.90799  1.0000
  I   I199      1.0  0.09773  0.89190  0.31864  1.0000
  I   I200      1.0  0.19987  0.59674  0.33806  1.0000
  I   I201      1.0  0.14733  0.86893  0.84047  1.0000
  I   I202      1.0  0.97416  0.89347  0.88799  1.0000
  I   I203      1.0  0.77363  0.32102  0.22697  1.0000
  I   I204      1.0  0.11859  0.77149  0.53223  1.0000
  I   I205      1.0  0.29284  0.38150  0.48634  1.0000
  I   I206      1.0  0.14299  0.99060  0.29599  1.0000
  I   I207      1.0  0.41534  0.78753  0.83361  1.0000
  I   I208      1.0  0.93930  0.44972  0.78918  1.0000
  I   I209      1.0  0.14992  0.26356  0.24688  1.0000
  I   I210      1.0  0.70653  0.62471  0.65496  1.0000
  I   I211      1.0  0.75898  0.03536  0.27586  1.0000
  I   I212      1.0  0.35217  0.12995  0.70612  1.0000
  I   I213      1.0  0.71690  0.31576  0.15139  1.0000
  I   I214      1.0  0.55740  0.84317  0.28887  1.0000
  I   I215      1.0  0.62318  0.81475  0.98763  1.0000
  I   I216      1.0  0.26845  0.81032  0.64776  1.0000
  I   I217      1.0  0.26746  0.25778  0.84462  1.0000
  I   I218      1.0  0.98894  0.21146  0.24857  1.0000
  I   I219      1.0  0.22099  0.54007  0.74620  1.0000
  I   I220      1.0  0.71225  0.47720  0.02859  1.0000
  I   I221      1.0  0.03136  0.08568  0.11980  1.0000
  I   I222      1.0  0.89325  0.46712  0.11638  1.0000
  I   I223      1.0  0.70991  0.29357  0.55570  1.0000
  I   I224      1.0  0.68397  0.04493  0.86651  1.0000
  I   I225      1.0  0.41776  0.78385  0.36111  1.0000
  I   I226      1.0  0.69353  0.70964  0.75200  1.0000
  I   I227      1.0  0.85703  0.32919  0.01629  1.0000
  I   I228      1.0  0.10153  0.54928  0.56351  1.0000
  I   I229      1.0  0.04547  0.21678  0.97375  1.0000
  I   I230      1.0  0.50916  0.23080  0.53525  1.0000
  I   I231      1.0  0.48100  0.26291  0.00637  1.0000
  I   I232      1.0  0.70255  0.83342  0.37855  1.0000
  I   I233      1.0  0.48120  0.73926  0.38618  1.0000
  I   I234      1.0  0.88794  0.84291  0.65113  1.0000
  I   I235      1.0  0.33940  0.09558  0.96666  1.0000
  I   I236      1.0  0.82293  0.67296  0.31294  1.0000
  I   I237      1.0  0.47537  0.69598  0.66344  1.0000
  I   I238      1.0  0.19629  0.00139  0.03224  1.0000
  I   I239      1.0  0.83996  0.07004  0.00168  1.0000
  I   I240      1.0  0.39698  0.53241  0.08525  1.0000
  I   I241      1.0  0.59325  0.97152  0.54324  1.0000
  I   I242      1.0  0.45011  0.11330  0.32671  1.0000
  I   I243      1.0  0.05697  0.52760  0.99737  1.0000
  I   I244      1.0  0.52190  0.45010  0.69829  1.0000
  I   I245      1.0  0.26578  0.74605  0.19176  1.0000
  I   I246      1.0  0.56866  0.07334  0.02671  1.0000
  I   I247      1.0  0.10126  0.89911  0.45604  1.0000
  I   I248      1.0  0.19122  0.51743  0.28826  1.0000
  I   I249      1.0  0.14173  0.91541  0.64962  1.0000
  I   I250      1.0  0.02157  0.90137  0.82132  1.0000
  I   I251      1.0  0.33130  0.45120  0.01734  1.0000
  I   I252      1.0  0.24609  0.73818  0.57694  1.0000
  I   I253      1.0  0.39165  0.40129  0.44537  1.0000
  I   I254      1.0  0.14237  0.06571  0.37059  1.0000
  I   I255      1.0  0.49018  0.72896  0.92649  1.0000
  I   I256      1.0  0.99471  0.53884  0.85198  1.0000
  I   I257      1.0  0.16671  0.19646  0.22663  1.0000
  I   I258      1.0  0.81674  0.51024  0.61141  1.0000
  I   I259      1.0  0.75321  0.05617  0.39443  1.0000
  I   I260      1.0  0.27799  0.19357  0.53582  1.0000
  I   I261      1.0  0.77034  0.25661  0.20779  1.0000
  I   I262      1.0  0.59604  0.87823  0.27237  1.0000
  I   I263      1.0  0.58914  0.87130  0.07321  1.0000
  I   I264      1.0  0.23609  0.89510  0.62738  1.0000
  I   I265      1.0  0.24774  0.38733  0.81220  1.0000
  I   I266      1.0  0.03686  0.14412  0.32088  1.0000
  I   I267      1.0  0.22777  0.50831  0.85423  1.0000
  I   I268      1.0  0.75052  0.52275  0.02284  1.0000
  I   I269      1.0  0.96313  0.03821  0.26192  1.0000
  I   I270      1.0  0.82324  0.45471  0.27190  1.0000
  I   I271      1.0  0.71206  0.36197  0.51636  1.0000
  I   I272      1.0  0.69699  0.11732  0.93808  1.0000
  I   I273      1.0  0.40134  0.82270  0.24932  1.0000
  I   I274      1.0  0.71511  0.74605  0.80758  1.0000
  I   I275      1.0  0.76055  0.37204  0.07543  1.0000
  I   I276      1.0  0.05879  0.51977  0.53333  1.0000
  I   I277      1.0  0.10006  0.17552  0.04104  1.0000
  I   I278      1.0  0.51528  0.25285  0.65770  1.0000
  I   I279      1.0  0.37764  0.27036  0.13550  1.0000
  I   I280      1.0  0.75678  0.78600  0.45695  1.0000
  I   I281      1.0  0.48326  0.65225  0.42358  1.0000
  I   I282      1.0  0.87310  0.82169  0.77737  1.0000
  I   I283      1.0  0.31987  0.06199  0.09439  1.0000
  I   I284      1.0  0.78833  0.66688  0.19241  1.0000
  I   I285      1.0  0.38629  0.65759  0.81113  1.0000
  I   I286      1.0  0.19319  0.03131  0.20274  1.0000
  I   I287      1.0  0.80843  0.14171  0.95619  1.0000
  I   I288      1.0  0.34710  0.57519  0.18670  1.0000
  I   I289      1.0  0.66730  0.93278  0.54889  1.0000
  I   I290      1.0  0.77030  0.20260  0.84896  1.0000
  I   I291      1.0  0.46872  0.16401  0.31256  1.0000
  I   I292      1.0  0.45423  0.52159  0.69625  1.0000
  I   I293      1.0  0.22224  0.71290  0.13003  1.0000
  I   I294      1.0  0.54631  0.10939  0.91482  1.0000
  I   I295      1.0  0.01153  0.89895  0.46646  1.0000
  I   I296      1.0  0.16350  0.54256  0.15319  1.0000
  I   I297      1.0  0.12701  0.98219  0.64554  1.0000
  I   I298      1.0  0.25195  0.17574  0.89064  1.0000
  I   I299      1.0  0.05614  0.83641  0.80012  1.0000
  I   I300      1.0  0.17708  0.79347  0.62170  1.0000
  I   I301      1.0  0.52793  0.78241  0.98330  1.0000
  I   I302      1.0  0.25289  0.43764  0.57315  1.0000
  I   I303      1.0  0.10682  0.09464  0.46892  1.0000
  I   I304      1.0  0.75453  0.53510  0.71791  1.0000
  I   I305      1.0  0.00317  0.44314  0.69107  1.0000
  I   I306      1.0  0.50419  0.26507  0.80329  1.0000
  I   I307      1.0  0.79126  0.98682  0.36777  1.0000
  I   I308      1.0  0.35837  0.18865  0.74865  1.0000
  I   I309      1.0  0.69947  0.32327  0.26520  1.0000
  I   I310      1.0  0.65821  0.73669  0.32726  1.0000
  I   I311      1.0  0.60286  0.93498  0.07233  1.0000
  I   I312      1.0  0.88649  0.88993  0.05111  1.0000
  I   I313      1.0  0.26125  0.56189  0.64065  1.0000
  I   I314      1.0  0.25791  0.34885  0.93087  1.0000
  I   I315      1.0  0.96493  0.29084  0.40940  1.0000
  I   I316      1.0  0.89872  0.44468  0.24794  1.0000
  I   I317      1.0  0.78083  0.45838  0.07982  1.0000
  I   I318      1.0  0.95690  0.11029  0.23100  1.0000
  I   I319      1.0  0.36851  0.85222  0.37706  1.0000
  I   I320      1.0  0.68139  0.39651  0.42103  1.0000
  I   I321      1.0  0.68416  0.10456  0.82703  1.0000
  I   I322      1.0  0.61367  0.82727  0.66004  1.0000
  I   I323      1.0  0.71110  0.41052  0.97693  1.0000
  I   I324      1.0  0.18614  0.44300  0.70057  1.0000
  I   I325      1.0  0.10526  0.21687  0.97011  1.0000
  I   I326      1.0  0.54660  0.20256  0.77620  1.0000
  I   I327      1.0  0.50425  0.24502  0.13868  1.0000
  I   I328      1.0  0.70382  0.83962  0.52028  1.0000
  I   I329      1.0  0.51992  0.76258  0.43438  1.0000
  I   I330      1.0  0.85613  0.90034  0.69431  1.0000
  I   I331      1.0  0.37770  0.68269  0.66547  1.0000
  I   I332      1.0  0.37587  0.07928  0.08660  1.0000
  I   I333      1.0  0.75788  0.64715  0.10614  1.0000
  I   I334      1.0  0.36823  0.60951  0.09139  1.0000
  I   I335      1.0  0.22924  0.96424  0.12872  1.0000
  I   I336      1.0  0.80085  0.14199  0.11322  1.0000
  I   I337      1.0  0.62345  0.99147  0.46574  1.0000
  I   I338      1.0  0.75501  0.18961  0.99185  1.0000
  I   I339      1.0  0.47983  0.14399  0.47285  1.0000
  I   I340      1.0  0.45740  0.53066  0.55395  1.0000
  I   I341      1.0  0.19131  0.77653  0.05557  1.0000
  I   I342      1.0  0.47189  0.05560  0.96256  1.0000
  I   I343      1.0  0.05606  0.94639  0.39170  1.0000
  I   I344      1.0  0.12872  0.58292  0.24466  1.0000
  I   I345      1.0  0.07551  0.96737  0.64914  1.0000
  I   I346      1.0  0.31421  0.16396  0.90920  1.0000
  I   I347      1.0  0.03556  0.83933  0.91803  1.0000
  I   I348      1.0  0.14907  0.74374  0.63593  1.0000
  I   I349      1.0  0.43396  0.79079  0.96167  1.0000
  I   I350      1.0  0.36625  0.45312  0.52617  1.0000
  I   I351      1.0  0.10429  0.04199  0.39256  1.0000
  I   I352      1.0  0.71077  0.60044  0.75740  1.0000
  I   I353      1.0  0.97485  0.53804  0.70948  1.0000
  I   I354      1.0  0.60352  0.20669  0.80939  1.0000
  I   I355      1.0  0.80173  0.06443  0.30148  1.0000
  I   I356      1.0  0.35003  0.20827  0.61914  1.0000
  I   I357      1.0  0.66942  0.38045  0.19837  1.0000
  I   I358      1.0  0.30256  0.84294  0.56432  1.0000
  I   I359      1.0  0.62002  0.90092  0.94500  1.0000
  I   I360      1.0  0.84476  0.86606  0.09013  1.0000
  I   I361      1.0  0.26105  0.56820  0.76638  1.0000
  I   I362      1.0  0.26457  0.33254  0.75253  1.0000
  I   I363      1.0  0.97070  0.17173  0.33392  1.0000
  I   I364      1.0  0.90572  0.37637  0.20959  1.0000
  I   I365      1.0  0.75746  0.51725  0.14354  1.0000
  I   I366      1.0  0.96127  0.12715  0.09937  1.0000
  I   I367      1.0  0.32202  0.85183  0.26442  1.0000
  I   I368      1.0  0.68686  0.45586  0.41720  1.0000
  I   I369      1.0  0.64404  0.08447  0.00434  1.0000
  I   I370      1.0  0.63038  0.76274  0.71244  1.0000
  I   I371      1.0  0.74309  0.35915  0.92153  1.0000
  I   I372      1.0  0.16246  0.44551  0.57452  1.0000
  I   I373      1.0  0.10543  0.23049  0.09801  1.0000
  I   I374      1.0  0.44641  0.24058  0.57607  1.0000
  I   I375      1.0  0.44340  0.30424  0.11662  1.0000
  I   I376      1.0  0.81870  0.78751  0.36626  1.0000
  I   I377      1.0  0.55632  0.69668  0.49913  1.0000
  I   I378      1.0  0.88552  0.89640  0.54896  1.0000
  I   I379      1.0  0.40860  0.60988  0.70429  1.0000
  I   I380      1.0  0.92779  0.20526  0.64025  1.0000
  I   I381      1.0  0.80920  0.62772  0.36600  1.0000
  I   I382      1.0  0.34955  0.58613  0.31108  1.0000
  I   I383      1.0  0.21650  0.05205  0.09180  1.0000
  I   I384      1.0  0.78872  0.07735  0.07412  1.0000
