data_image0
_chemical_formula_structural       Ti96I384
_chemical_formula_sum              "Ti96 I384"
_cell_length_a       69.9597
_cell_length_b       69.636
_cell_length_c       34.1413
_cell_angle_alpha    88.7757
_cell_angle_beta     88.7757
_cell_angle_gamma    62.1586

_space_group_name_H-M_alt    "P 1"
_space_group_IT_number       1

loop_
  _space_group_symop_operation_xyz
  'x, y, z'

loop_
  _atom_site_type_symbol
  _atom_site_label
  _atom_site_symmetry_multiplicity
  _atom_site_fract_x
  _atom_site_fract_y
  _atom_site_fract_z
  _atom_site_occupancy
  Ti  Ti1       1.0  0.00134  0.99610  0.37940  1.0000
  Ti  Ti2       1.0  0.05725  0.15184  0.24608  1.0000
  Ti  Ti3       1.0  0.42845  0.99078  0.33743  1.0000
  Ti  Ti4       1.0  0.99513  0.38444  0.48649  1.0000
  Ti  Ti5       1.0  0.34506  0.63207  0.22451  1.0000
  Ti  Ti6       1.0  0.67960  0.00918  0.01891  1.0000
  Ti  Ti7       1.0  0.90307  0.61464  0.62142  1.0000
  Ti  Ti8       1.0  0.24708  0.57265  0.50806  1.0000
  Ti  Ti9       1.0  0.40274  0.05953  0.59638  1.0000
  Ti  Ti10      1.0  0.27163  0.44105  0.75461  1.0000
  Ti  Ti11      1.0  0.25974  0.28601  0.73324  1.0000
  Ti  Ti12      1.0  0.84356  0.71702  0.96462  1.0000
  Ti  Ti13      1.0  0.80487  0.29333  0.69903  1.0000
  Ti  Ti14      1.0  0.79664  0.13232  0.66818  1.0000
  Ti  Ti15      1.0  0.71648  0.72749  0.78549  1.0000
  Ti  Ti16      1.0  0.30434  0.47880  0.78761  1.0000
  Ti  Ti17      1.0  0.31456  0.90149  0.53812  1.0000
  Ti  Ti18      1.0  0.51562  0.79628  0.55789  1.0000
  Ti  Ti19      1.0  0.50989  0.59563  0.55407  1.0000
  Ti  Ti20      1.0  0.48222  0.19293  0.73702  1.0000
  Ti  Ti21      1.0  0.27658  0.56705  0.42636  1.0000
  Ti  Ti22      1.0  0.58534  0.95006  0.54523  1.0000
  Ti  Ti23      1.0  0.24667  0.14179  0.28491  1.0000
  Ti  Ti24      1.0  0.19293  0.77973  0.79699  1.0000
  Ti  Ti25      1.0  0.43286  0.11828  0.80902  1.0000
  Ti  Ti26      1.0  0.99309  0.92973  0.03559  1.0000
  Ti  Ti27      1.0  0.80960  0.17512  0.13334  1.0000
  Ti  Ti28      1.0  0.55315  0.84937  0.85836  1.0000
  Ti  Ti29      1.0  0.07506  0.75957  0.65646  1.0000
  Ti  Ti30      1.0  0.33687  0.90489  0.74870  1.0000
  Ti  Ti31      1.0  0.05069  0.42475  0.62827  1.0000
  Ti  Ti32      1.0  0.27364  0.97581  0.97264  1.0000
  Ti  Ti33      1.0  0.23755  0.80719  0.37718  1.0000
  Ti  Ti34      1.0  0.53235  0.36427  0.94874  1.0000
  Ti  Ti35      1.0  0.75981  0.61146  0.76231  1.0000
  Ti  Ti36      1.0  0.14461  0.18506  0.09216  1.0000
  Ti  Ti37      1.0  0.22494  0.18019  0.64607  1.0000
  Ti  Ti38      1.0  0.59401  0.44679  0.11869  1.0000
  Ti  Ti39      1.0  0.04214  0.54567  0.15040  1.0000
  Ti  Ti40      1.0  0.84859  0.51525  0.04922  1.0000
  Ti  Ti41      1.0  0.45308  0.21376  0.47575  1.0000
  Ti  Ti42      1.0  0.15462  0.90551  0.72821  1.0000
  Ti  Ti43      1.0  0.15730  0.09863  0.34498  1.0000
  Ti  Ti44      1.0  0.65668  0.94471  0.72262  1.0000
  Ti  Ti45      1.0  0.25495  0.34083  0.06701  1.0000
  Ti  Ti46      1.0  0.64708  0.51530  0.09216  1.0000
  Ti  Ti47      1.0  0.55067  0.40802  0.62210  1.0000
  Ti  Ti48      1.0  0.91119  0.02196  0.29136  1.0000
  Ti  Ti49      1.0  0.05414  0.07651  0.66875  1.0000
  Ti  Ti50      1.0  0.13459  0.33538  0.48880  1.0000
  Ti  Ti51      1.0  0.04321  0.10557  0.26263  1.0000
  Ti  Ti52      1.0  0.65053  0.14019  0.03028  1.0000
  Ti  Ti53      1.0  0.39212  0.77179  0.23719  1.0000
  Ti  Ti54      1.0  0.92966  0.84770  0.24810  1.0000
  Ti  Ti55      1.0  0.86265  0.65820  0.51793  1.0000
  Ti  Ti56      1.0  0.59106  0.28773  0.31144  1.0000
  Ti  Ti57      1.0  0.41342  0.10180  0.54948  1.0000
  Ti  Ti58      1.0  0.68736  0.27478  0.62225  1.0000
  Ti  Ti59      1.0  0.65720  0.27090  0.93740  1.0000
  Ti  Ti60      1.0  0.86008  0.69776  0.04639  1.0000
  Ti  Ti61      1.0  0.65704  0.77063  0.73358  1.0000
  Ti  Ti62      1.0  0.83790  0.28769  0.58731  1.0000
  Ti  Ti63      1.0  0.82347  0.11079  0.55666  1.0000
  Ti  Ti64      1.0  0.48259  0.80385  0.62762  1.0000
  Ti  Ti65      1.0  0.71850  0.92864  0.57446  1.0000
  Ti  Ti66      1.0  0.34965  0.29917  0.93852  1.0000
  Ti  Ti67      1.0  0.64235  0.82926  0.09607  1.0000
  Ti  Ti68      1.0  0.49509  0.62669  0.45653  1.0000
  Ti  Ti69      1.0  0.96949  0.89454  0.01343  1.0000
  Ti  Ti70      1.0  0.53160  0.82691  0.22973  1.0000
  Ti  Ti71      1.0  0.27867  0.16308  0.27827  1.0000
  Ti  Ti72      1.0  0.54731  0.36806  0.70882  1.0000
  Ti  Ti73      1.0  0.76498  0.15312  0.17803  1.0000
  Ti  Ti74      1.0  0.38731  0.13562  0.88295  1.0000
  Ti  Ti75      1.0  0.39651  0.81075  0.01291  1.0000
  Ti  Ti76      1.0  0.36499  0.93391  0.71344  1.0000
  Ti  Ti77      1.0  0.49683  0.86553  0.93162  1.0000
  Ti  Ti78      1.0  0.09436  0.77550  0.56667  1.0000
  Ti  Ti79      1.0  0.57652  0.73061  0.36679  1.0000
  Ti  Ti80      1.0  0.99222  0.37910  0.60830  1.0000
  Ti  Ti81      1.0  0.27387  0.00676  0.86678  1.0000
  Ti  Ti82      1.0  0.43490  0.24109  0.11880  1.0000
  Ti  Ti83      1.0  0.75024  0.59366  0.65713  1.0000
  Ti  Ti84      1.0  0.15081  0.14400  0.05527  1.0000
  Ti  Ti85      1.0  0.19554  0.21872  0.59373  1.0000
  Ti  Ti86      1.0  0.32461  0.33571  0.85400  1.0000
  Ti  Ti87      1.0  0.25912  0.28253  0.12249  1.0000
  Ti  Ti88      1.0  0.58458  0.16402  0.96200  1.0000
  Ti  Ti89      1.0  0.43549  0.27662  0.53078  1.0000
  Ti  Ti90      1.0  0.19495  0.91017  0.69959  1.0000
  Ti  Ti91      1.0  0.16648  0.54051  0.08432  1.0000
  Ti  Ti92      1.0  0.37802  0.62528  0.97714  1.0000
  Ti  Ti93      1.0  0.10868  0.70982  0.15033  1.0000
  Ti  Ti94      1.0  0.87725  0.00039  0.34929  1.0000
  Ti  Ti95      1.0  0.69022  0.41971  0.78708  1.0000
  Ti  Ti96      1.0  0.60213  0.58289  0.85798  1.0000
  I   I1        1.0  0.52742  0.43369  0.56278  1.0000
  I   I2        1.0  0.05439  0.12398  0.20067  1.0000
  I   I3        1.0  0.05602  0.10336  0.62252  1.0000
  I   I4        1.0  0.41661  0.76143  0.17911  1.0000
  I   I5        1.0  0.66798  0.98687  0.06233  1.0000
  I   I6        1.0  0.94529  0.87077  0.21289  1.0000
  I   I7        1.0  0.23391  0.59424  0.42460  1.0000
  I   I8        1.0  0.58555  0.30648  0.38447  1.0000
  I   I9        1.0  0.44141  0.09289  0.49308  1.0000
  I   I10       1.0  0.34108  0.46149  0.82342  1.0000
  I   I11       1.0  0.27362  0.31528  0.74205  1.0000
  I   I12       1.0  0.32313  0.66302  0.27731  1.0000
  I   I13       1.0  0.76645  0.31018  0.73351  1.0000
  I   I14       1.0  0.77490  0.14077  0.59302  1.0000
  I   I15       1.0  0.72653  0.69064  0.81936  1.0000
  I   I16       1.0  0.32498  0.48254  0.72978  1.0000
  I   I17       1.0  0.38197  0.26055  0.95918  1.0000
  I   I18       1.0  0.52753  0.82139  0.51316  1.0000
  I   I19       1.0  0.50511  0.15321  0.76224  1.0000
  I   I20       1.0  0.23124  0.27731  0.76983  1.0000
  I   I21       1.0  0.24927  0.60867  0.52581  1.0000
  I   I22       1.0  0.22429  0.13051  0.34459  1.0000
  I   I23       1.0  0.28226  0.15166  0.20615  1.0000
  I   I24       1.0  0.54920  0.83479  0.28945  1.0000
  I   I25       1.0  0.34999  0.13283  0.90180  1.0000
  I   I26       1.0  0.41953  0.77969  0.06151  1.0000
  I   I27       1.0  0.80555  0.14748  0.19332  1.0000
  I   I28       1.0  0.57815  0.85899  0.89829  1.0000
  I   I29       1.0  0.11448  0.73827  0.61591  1.0000
  I   I30       1.0  0.36345  0.86633  0.73575  1.0000
  I   I31       1.0  0.94941  0.39465  0.60779  1.0000
  I   I32       1.0  0.24461  0.00406  0.92611  1.0000
  I   I33       1.0  0.54238  0.73409  0.33201  1.0000
  I   I34       1.0  0.77432  0.60299  0.83474  1.0000
  I   I35       1.0  0.15317  0.14428  0.13520  1.0000
  I   I36       1.0  0.49805  0.35871  0.96149  1.0000
  I   I37       1.0  0.21246  0.22396  0.66758  1.0000
  I   I38       1.0  0.04691  0.58199  0.17535  1.0000
  I   I39       1.0  0.18214  0.19064  0.61196  1.0000
  I   I40       1.0  0.49443  0.18765  0.48135  1.0000
  I   I41       1.0  0.18783  0.87880  0.67479  1.0000
  I   I42       1.0  0.86376  0.49915  0.11944  1.0000
  I   I43       1.0  0.71753  0.23267  0.61737  1.0000
  I   I44       1.0  0.65749  0.98225  0.70583  1.0000
  I   I45       1.0  0.23947  0.32905  0.13340  1.0000
  I   I46       1.0  0.71144  0.40411  0.85562  1.0000
  I   I47       1.0  0.55061  0.43580  0.67103  1.0000
  I   I48       1.0  0.89819  0.03442  0.22347  1.0000
  I   I49       1.0  0.09400  0.04339  0.66778  1.0000
  I   I50       1.0  0.02450  0.08824  0.31599  1.0000
  I   I51       1.0  0.00059  0.13897  0.27101  1.0000
  I   I52       1.0  0.99613  0.40255  0.66600  1.0000
  I   I53       1.0  0.36659  0.75617  0.24080  1.0000
  I   I54       1.0  0.96109  0.83471  0.30163  1.0000
  I   I55       1.0  0.86509  0.62456  0.57380  1.0000
  I   I56       1.0  0.28619  0.54873  0.35741  1.0000
  I   I57       1.0  0.36363  0.06073  0.60785  1.0000
  I   I58       1.0  0.25824  0.42617  0.81425  1.0000
  I   I59       1.0  0.69127  0.26849  0.96172  1.0000
  I   I60       1.0  0.82619  0.74923  0.02173  1.0000
  I   I61       1.0  0.86795  0.24741  0.59523  1.0000
  I   I62       1.0  0.82334  0.25388  0.68534  1.0000
  I   I63       1.0  0.80065  0.10564  0.50360  1.0000
  I   I64       1.0  0.26754  0.48321  0.75613  1.0000
  I   I65       1.0  0.75450  0.91410  0.53297  1.0000
  I   I66       1.0  0.32435  0.28053  0.92228  1.0000
  I   I67       1.0  0.54389  0.55890  0.55374  1.0000
  I   I68       1.0  0.46259  0.19801  0.66866  1.0000
  I   I69       1.0  0.98195  0.85453  0.99825  1.0000
  I   I70       1.0  0.54792  0.78477  0.22049  1.0000
  I   I71       1.0  0.24075  0.11191  0.25208  1.0000
  I   I72       1.0  0.56499  0.38764  0.74294  1.0000
  I   I73       1.0  0.76134  0.12355  0.14326  1.0000
  I   I74       1.0  0.99365  0.95364  0.97949  1.0000
  I   I75       1.0  0.00104  0.88543  0.94971  1.0000
  I   I76       1.0  0.51999  0.88595  0.94173  1.0000
  I   I77       1.0  0.53252  0.83143  0.91247  1.0000
  I   I78       1.0  0.97746  0.98390  0.34252  1.0000
  I   I79       1.0  0.21404  0.83418  0.32019  1.0000
  I   I80       1.0  0.01383  0.44867  0.66106  1.0000
  I   I81       1.0  0.30129  0.99250  0.93344  1.0000
  I   I82       1.0  0.47333  0.20976  0.09598  1.0000
  I   I83       1.0  0.74036  0.63532  0.68215  1.0000
  I   I84       1.0  0.10373  0.19461  0.07474  1.0000
  I   I85       1.0  0.23816  0.19688  0.56897  1.0000
  I   I86       1.0  0.35019  0.35447  0.81456  1.0000
  I   I87       1.0  0.00437  0.55627  0.18923  1.0000
  I   I88       1.0  0.87667  0.52782  0.01707  1.0000
  I   I89       1.0  0.41087  0.30148  0.47802  1.0000
  I   I90       1.0  0.17554  0.93716  0.76110  1.0000
  I   I91       1.0  0.14920  0.52953  0.02902  1.0000
  I   I92       1.0  0.38592  0.64085  0.91136  1.0000
  I   I93       1.0  0.68619  0.91227  0.68835  1.0000
  I   I94       1.0  0.90965  0.96065  0.34973  1.0000
  I   I95       1.0  0.67680  0.49603  0.13948  1.0000
  I   I96       1.0  0.57286  0.61388  0.89673  1.0000
  I   I97       1.0  0.41220  0.97458  0.28344  1.0000
  I   I98       1.0  0.02812  0.96057  0.41029  1.0000
  I   I99       1.0  0.09911  0.12099  0.25760  1.0000
  I   I100      1.0  0.98743  0.41284  0.54886  1.0000
  I   I101      1.0  0.66494  0.16586  0.01620  1.0000
  I   I102      1.0  0.36938  0.59332  0.24453  1.0000
  I   I103      1.0  0.94121  0.60760  0.62359  1.0000
  I   I104      1.0  0.83909  0.66075  0.46102  1.0000
  I   I105      1.0  0.44345  0.04374  0.55126  1.0000
  I   I106      1.0  0.82820  0.69069  0.00295  1.0000
  I   I107      1.0  0.29901  0.40311  0.73992  1.0000
  I   I108      1.0  0.82566  0.70950  0.10704  1.0000
  I   I109      1.0  0.72332  0.75200  0.82695  1.0000
  I   I110      1.0  0.83708  0.30064  0.65879  1.0000
  I   I111      1.0  0.83423  0.13897  0.52394  1.0000
  I   I112      1.0  0.53038  0.78951  0.63329  1.0000
  I   I113      1.0  0.69897  0.92441  0.50710  1.0000
  I   I114      1.0  0.31137  0.92542  0.59784  1.0000
  I   I115      1.0  0.63340  0.80801  0.04665  1.0000
  I   I116      1.0  0.63100  0.86553  0.05588  1.0000
  I   I117      1.0  0.53473  0.60819  0.50172  1.0000
  I   I118      1.0  0.61993  0.94745  0.51152  1.0000
  I   I119      1.0  0.53532  0.85179  0.17734  1.0000
  I   I120      1.0  0.55199  0.33050  0.69410  1.0000
  I   I121      1.0  0.78121  0.16166  0.10036  1.0000
  I   I122      1.0  0.44641  0.08087  0.78179  1.0000
  I   I123      1.0  0.35916  0.83298  0.05441  1.0000
  I   I124      1.0  0.31222  0.91321  0.80960  1.0000
  I   I125      1.0  0.54815  0.87901  0.80084  1.0000
  I   I126      1.0  0.08067  0.75494  0.73151  1.0000
  I   I127      1.0  0.22236  0.83361  0.43303  1.0000
  I   I128      1.0  0.03370  0.37851  0.46063  1.0000
  I   I129      1.0  0.29709  0.93478  0.96132  1.0000
  I   I130      1.0  0.13085  0.12157  0.07794  1.0000
  I   I131      1.0  0.42211  0.20591  0.12617  1.0000
  I   I132      1.0  0.75346  0.55505  0.67444  1.0000
  I   I133      1.0  0.08256  0.51707  0.15357  1.0000
  I   I134      1.0  0.60941  0.45491  0.05203  1.0000
  I   I135      1.0  0.35800  0.29574  0.85625  1.0000
  I   I136      1.0  0.20508  0.93886  0.66715  1.0000
  I   I137      1.0  0.57679  0.20458  0.96506  1.0000
  I   I138      1.0  0.41649  0.25277  0.48594  1.0000
  I   I139      1.0  0.16866  0.51373  0.14258  1.0000
  I   I140      1.0  0.36852  0.59635  0.94599  1.0000
  I   I141      1.0  0.06983  0.71639  0.15074  1.0000
  I   I142      1.0  0.86660  0.98943  0.27730  1.0000
  I   I143      1.0  0.65581  0.51384  0.00945  1.0000
  I   I144      1.0  0.58335  0.55973  0.84331  1.0000
  I   I145      1.0  0.00460  0.01656  0.44514  1.0000
  I   I146      1.0  0.07396  0.17488  0.21158  1.0000
  I   I147      1.0  0.46673  0.96200  0.30716  1.0000
  I   I148      1.0  0.68139  0.10664  0.99831  1.0000
  I   I149      1.0  0.37906  0.63165  0.18486  1.0000
  I   I150      1.0  0.65583  0.05257  0.99686  1.0000
  I   I151      1.0  0.83055  0.68662  0.56390  1.0000
  I   I152      1.0  0.27540  0.55080  0.55813  1.0000
  I   I153      1.0  0.43824  0.11390  0.58200  1.0000
  I   I154      1.0  0.12617  0.12722  0.38450  1.0000
  I   I155      1.0  0.23485  0.28851  0.66794  1.0000
  I   I156      1.0  0.87516  0.66596  0.09300  1.0000
  I   I157      1.0  0.74472  0.71298  0.72720  1.0000
  I   I158      1.0  0.86077  0.07815  0.54385  1.0000
  I   I159      1.0  0.64220  0.80110  0.67472  1.0000
  I   I160      1.0  0.48592  0.78059  0.55607  1.0000
  I   I161      1.0  0.35490  0.88755  0.53381  1.0000
  I   I162      1.0  0.47399  0.83786  0.56756  1.0000
  I   I163      1.0  0.48445  0.57431  0.54370  1.0000
  I   I164      1.0  0.45337  0.65716  0.44418  1.0000
  I   I165      1.0  0.31311  0.53711  0.46921  1.0000
  I   I166      1.0  0.55672  0.95674  0.49127  1.0000
  I   I167      1.0  0.25049  0.16416  0.35231  1.0000
  I   I168      1.0  0.20023  0.75029  0.85278  1.0000
  I   I169      1.0  0.38009  0.17318  0.85247  1.0000
  I   I170      1.0  0.42627  0.09932  0.90141  1.0000
  I   I171      1.0  0.76294  0.13905  0.24965  1.0000
  I   I172      1.0  0.39601  0.89382  0.69409  1.0000
  I   I173      1.0  0.11802  0.76335  0.50061  1.0000
  I   I174      1.0  0.36621  0.91568  0.78988  1.0000
  I   I175      1.0  0.05052  0.39097  0.60312  1.0000
  I   I176      1.0  0.25184  0.96977  0.02394  1.0000
  I   I177      1.0  0.57407  0.70385  0.42380  1.0000
  I   I178      1.0  0.43906  0.23868  0.19323  1.0000
  I   I179      1.0  0.77575  0.57731  0.59458  1.0000
  I   I180      1.0  0.12408  0.22610  0.11753  1.0000
  I   I181      1.0  0.15151  0.24908  0.59215  1.0000
  I   I182      1.0  0.36184  0.31744  0.99562  1.0000
  I   I183      1.0  0.28685  0.29966  0.09548  1.0000
  I   I184      1.0  0.59224  0.16069  0.88183  1.0000
  I   I185      1.0  0.45252  0.22815  0.55186  1.0000
  I   I186      1.0  0.11911  0.93741  0.75719  1.0000
  I   I187      1.0  0.39873  0.60231  0.04397  1.0000
  I   I188      1.0  0.65734  0.93674  0.79653  1.0000
  I   I189      1.0  0.21353  0.35930  0.04025  1.0000
  I   I190      1.0  0.62031  0.55293  0.12979  1.0000
  I   I191      1.0  0.10724  0.36922  0.44981  1.0000
  I   I192      1.0  0.91585  0.05218  0.32579  1.0000
  I   I193      1.0  0.07669  0.79924  0.64588  1.0000
  I   I194      1.0  0.10385  0.32342  0.50206  1.0000
  I   I195      1.0  0.40386  0.99855  0.39718  1.0000
  I   I196      1.0  0.98529  0.36419  0.42856  1.0000
  I   I197      1.0  0.65780  0.28869  0.67721  1.0000
  I   I198      1.0  0.71011  0.01070  0.06215  1.0000
  I   I199      1.0  0.91142  0.58481  0.56135  1.0000
  I   I200      1.0  0.57489  0.26143  0.30526  1.0000
  I   I201      1.0  0.42503  0.02805  0.64381  1.0000
  I   I202      1.0  0.63627  0.25636  0.98343  1.0000
  I   I203      1.0  0.93039  0.90226  0.04425  1.0000
  I   I204      1.0  0.89344  0.68499  0.99689  1.0000
  I   I205      1.0  0.82589  0.29506  0.76793  1.0000
  I   I206      1.0  0.83253  0.10818  0.70590  1.0000
  I   I207      1.0  0.70032  0.76114  0.72873  1.0000
  I   I208      1.0  0.30845  0.43611  0.80744  1.0000
  I   I209      1.0  0.31774  0.90043  0.46012  1.0000
  I   I210      1.0  0.54832  0.77077  0.40874  1.0000
  I   I211      1.0  0.61881  0.83983  0.15394  1.0000
  I   I212      1.0  0.50978  0.20716  0.74591  1.0000
  I   I213      1.0  0.95491  0.93719  0.98362  1.0000
  I   I214      1.0  0.59247  0.91660  0.59339  1.0000
  I   I215      1.0  0.29423  0.12210  0.30239  1.0000
  I   I216      1.0  0.15323  0.81393  0.82007  1.0000
  I   I217      1.0  0.43247  0.14010  0.74952  1.0000
  I   I218      1.0  0.38507  0.79487  0.95720  1.0000
  I   I219      1.0  0.85242  0.15965  0.11304  1.0000
  I   I220      1.0  0.50956  0.86292  0.83244  1.0000
  I   I221      1.0  0.07285  0.72385  0.64244  1.0000
  I   I222      1.0  0.31655  0.95778  0.73087  1.0000
  I   I223      1.0  0.05833  0.44463  0.57322  1.0000
  I   I224      1.0  0.30119  0.01055  0.82010  1.0000
  I   I225      1.0  0.22386  0.78196  0.40721  1.0000
  I   I226      1.0  0.45522  0.26492  0.14254  1.0000
  I   I227      1.0  0.76526  0.64620  0.75129  1.0000
  I   I228      1.0  0.14204  0.15085  0.98232  1.0000
  I   I229      1.0  0.21950  0.16771  0.71159  1.0000
  I   I230      1.0  0.58346  0.41573  0.13711  1.0000
  I   I231      1.0  0.03011  0.55200  0.07747  1.0000
  I   I232      1.0  0.76441  0.15931  0.70635  1.0000
  I   I233      1.0  0.46014  0.22771  0.40479  1.0000
  I   I234      1.0  0.22973  0.89197  0.74503  1.0000
  I   I235      1.0  0.14298  0.06845  0.32805  1.0000
  I   I236      1.0  0.12312  0.68551  0.21403  1.0000
  I   I237      1.0  0.13025  0.57351  0.11698  1.0000
  I   I238      1.0  0.70051  0.44384  0.73938  1.0000
  I   I239      1.0  0.61099  0.59978  0.79552  1.0000
  I   I240      1.0  0.84395  0.00669  0.39780  1.0000
  I   I241      1.0  0.06136  0.09078  0.72922  1.0000
  I   I242      1.0  0.05646  0.12788  0.31497  1.0000
  I   I243      1.0  0.42090  0.02750  0.30371  1.0000
  I   I244      1.0  0.63300  0.14863  0.94874  1.0000
  I   I245      1.0  0.41426  0.75292  0.29930  1.0000
  I   I246      1.0  0.68079  0.00318  0.94541  1.0000
  I   I247      1.0  0.89242  0.65154  0.58259  1.0000
  I   I248      1.0  0.26002  0.53591  0.45469  1.0000
  I   I249      1.0  0.37975  0.13716  0.55044  1.0000
  I   I250      1.0  0.62784  0.31172  0.92109  1.0000
  I   I251      1.0  0.29303  0.25273  0.70935  1.0000
  I   I252      1.0  0.83488  0.69925  0.90099  1.0000
  I   I253      1.0  0.82531  0.32807  0.55534  1.0000
  I   I254      1.0  0.80637  0.16121  0.64425  1.0000
  I   I255      1.0  0.67480  0.73815  0.79741  1.0000
  I   I256      1.0  0.72243  0.94572  0.64063  1.0000
  I   I257      1.0  0.32022  0.85978  0.54257  1.0000
  I   I258      1.0  0.45160  0.79598  0.64816  1.0000
  I   I259      1.0  0.68413  0.81113  0.10958  1.0000
  I   I260      1.0  0.47055  0.62990  0.54090  1.0000
  I   I261      1.0  0.21100  0.57322  0.51912  1.0000
  I   I262      1.0  0.56814  0.98661  0.58757  1.0000
  I   I263      1.0  0.21855  0.17385  0.24122  1.0000
  I   I264      1.0  0.19751  0.76210  0.73050  1.0000
  I   I265      1.0  0.39085  0.11934  0.80807  1.0000
  I   I266      1.0  0.99090  0.89285  0.07923  1.0000
  I   I267      1.0  0.73527  0.19243  0.18604  1.0000
  I   I268      1.0  0.49795  0.84755  0.99926  1.0000
  I   I269      1.0  0.08274  0.81535  0.55043  1.0000
  I   I270      1.0  0.37792  0.96150  0.73373  1.0000
  I   I271      1.0  0.07788  0.41004  0.68055  1.0000
  I   I272      1.0  0.24023  0.04075  0.84560  1.0000
  I   I273      1.0  0.27863  0.78312  0.38336  1.0000
  I   I274      1.0  0.53729  0.35904  0.87280  1.0000
  I   I275      1.0  0.70740  0.61208  0.63993  1.0000
  I   I276      1.0  0.19059  0.11859  0.02475  1.0000
  I   I277      1.0  0.39131  0.26549  0.12697  1.0000
  I   I278      1.0  0.61754  0.44844  0.17723  1.0000
  I   I279      1.0  0.28643  0.24127  0.12153  1.0000
  I   I280      1.0  0.60736  0.14451  0.03182  1.0000
  I   I281      1.0  0.43554  0.19444  0.43762  1.0000
  I   I282      1.0  0.14923  0.93170  0.66080  1.0000
  I   I283      1.0  0.15643  0.12300  0.28204  1.0000
  I   I284      1.0  0.13053  0.68583  0.08852  1.0000
  I   I285      1.0  0.24623  0.37590  0.11310  1.0000
  I   I286      1.0  0.65384  0.44874  0.81412  1.0000
  I   I287      1.0  0.58288  0.41588  0.57915  1.0000
  I   I288      1.0  0.90825  0.01481  0.37163  1.0000
  I   I289      1.0  0.02782  0.06528  0.63422  1.0000
  I   I290      1.0  0.15512  0.30595  0.43656  1.0000
  I   I291      1.0  0.02438  0.18888  0.26204  1.0000
  I   I292      1.0  0.63985  0.14021  0.10231  1.0000
  I   I293      1.0  0.36920  0.81546  0.25056  1.0000
  I   I294      1.0  0.90973  0.83396  0.19583  1.0000
  I   I295      1.0  0.89621  0.59536  0.67953  1.0000
  I   I296      1.0  0.57811  0.31281  0.25334  1.0000
  I   I297      1.0  0.40406  0.09080  0.63173  1.0000
  I   I298      1.0  0.67326  0.28279  0.54909  1.0000
  I   I299      1.0  0.24157  0.44720  0.70034  1.0000
  I   I300      1.0  0.87226  0.72080  0.08378  1.0000
  I   I301      1.0  0.62175  0.76395  0.71978  1.0000
  I   I302      1.0  0.79401  0.29338  0.61504  1.0000
  I   I303      1.0  0.86067  0.49098  0.98125  1.0000
  I   I304      1.0  0.54469  0.75868  0.53851  1.0000
  I   I305      1.0  0.28361  0.50964  0.83974  1.0000
  I   I306      1.0  0.30865  0.34395  0.92771  1.0000
  I   I307      1.0  0.48553  0.59757  0.43220  1.0000
  I   I308      1.0  0.45508  0.20807  0.79593  1.0000
  I   I309      1.0  0.28889  0.59594  0.41095  1.0000
  I   I310      1.0  0.19664  0.07582  0.36720  1.0000
  I   I311      1.0  0.25462  0.20649  0.26195  1.0000
  I   I312      1.0  0.52080  0.36987  0.76504  1.0000
  I   I313      1.0  0.79702  0.20722  0.17906  1.0000
  I   I314      1.0  0.45894  0.12448  0.84855  1.0000
  I   I315      1.0  0.41458  0.83150  0.97388  1.0000
  I   I316      1.0  0.35316  0.95029  0.64403  1.0000
  I   I317      1.0  0.56884  0.81300  0.81757  1.0000
  I   I318      1.0  0.05276  0.79032  0.54564  1.0000
  I   I319      1.0  0.61250  0.69696  0.34052  1.0000
  I   I320      1.0  0.97104  0.41798  0.43150  1.0000
  I   I321      1.0  0.28058  0.99861  0.03854  1.0000
  I   I322      1.0  0.56752  0.34806  0.99321  1.0000
  I   I323      1.0  0.78381  0.57046  0.71510  1.0000
  I   I324      1.0  0.18655  0.17715  0.08783  1.0000
  I   I325      1.0  0.26406  0.14982  0.63696  1.0000
  I   I326      1.0  0.31952  0.32531  0.77938  1.0000
  I   I327      1.0  0.23654  0.28222  0.06319  1.0000
  I   I328      1.0  0.81181  0.53806  0.01355  1.0000
  I   I329      1.0  0.41644  0.29393  0.60344  1.0000
  I   I330      1.0  0.17584  0.88684  0.79287  1.0000
  I   I331      1.0  0.26194  0.33545  0.98581  1.0000
  I   I332      1.0  0.71307  0.28580  0.64564  1.0000
  I   I333      1.0  0.62060  0.94414  0.70834  1.0000
  I   I334      1.0  0.86459  0.04395  0.31338  1.0000
  I   I335      1.0  0.62537  0.49415  0.10979  1.0000
  I   I336      1.0  0.63386  0.56722  0.90722  1.0000
  I   I337      1.0  0.01878  0.01464  0.33584  1.0000
  I   I338      1.0  0.13740  0.35662  0.55577  1.0000
  I   I339      1.0  0.07485  0.06753  0.24506  1.0000
  I   I340      1.0  0.00261  0.34318  0.65789  1.0000
  I   I341      1.0  0.32311  0.63119  0.16395  1.0000
  I   I342      1.0  0.89900  0.87871  0.28132  1.0000
  I   I343      1.0  0.87827  0.67548  0.47528  1.0000
  I   I344      1.0  0.63424  0.26155  0.30212  1.0000
  I   I345      1.0  0.37884  0.08855  0.53213  1.0000
  I   I346      1.0  0.48929  0.84808  0.24410  1.0000
  I   I347      1.0  0.66750  0.24327  0.87628  1.0000
  I   I348      1.0  0.85358  0.74462  0.93049  1.0000
  I   I349      1.0  0.64098  0.80366  0.77960  1.0000
  I   I350      1.0  0.82750  0.27578  0.52053  1.0000
  I   I351      1.0  0.81557  0.09309  0.61989  1.0000
  I   I352      1.0  0.47394  0.82789  0.68833  1.0000
  I   I353      1.0  0.73349  0.89106  0.61390  1.0000
  I   I354      1.0  0.29013  0.37261  0.83314  1.0000
  I   I355      1.0  0.51365  0.59575  0.62884  1.0000
  I   I356      1.0  0.50929  0.63314  0.38893  1.0000
  I   I357      1.0  0.02654  0.92673  0.07196  1.0000
  I   I358      1.0  0.21486  0.79999  0.80948  1.0000
  I   I359      1.0  0.31853  0.15761  0.29325  1.0000
  I   I360      1.0  0.51932  0.39823  0.64763  1.0000
  I   I361      1.0  0.80512  0.20685  0.07885  1.0000
  I   I362      1.0  0.38336  0.14705  0.95660  1.0000
  I   I363      1.0  0.96991  0.95626  0.09070  1.0000
  I   I364      1.0  0.30466  0.90344  0.71218  1.0000
  I   I365      1.0  0.45485  0.88880  0.92213  1.0000
  I   I366      1.0  0.03347  0.78523  0.68145  1.0000
  I   I367      1.0  0.58408  0.76266  0.34309  1.0000
  I   I368      1.0  0.01081  0.35305  0.54732  1.0000
  I   I369      1.0  0.27805  0.97479  0.82124  1.0000
  I   I370      1.0  0.51704  0.40566  0.95737  1.0000
  I   I371      1.0  0.72146  0.61113  0.77132  1.0000
  I   I372      1.0  0.14503  0.20475  0.01694  1.0000
  I   I373      1.0  0.18588  0.22116  0.51725  1.0000
  I   I374      1.0  0.55524  0.47876  0.14085  1.0000
  I   I375      1.0  0.25018  0.27986  0.19908  1.0000
  I   I376      1.0  0.54847  0.16981  0.97808  1.0000
  I   I377      1.0  0.47200  0.27676  0.51197  1.0000
  I   I378      1.0  0.12520  0.89010  0.71479  1.0000
  I   I379      1.0  0.19979  0.54749  0.06999  1.0000
  I   I380      1.0  0.33719  0.65368  0.98919  1.0000
  I   I381      1.0  0.10559  0.74663  0.11935  1.0000
  I   I382      1.0  0.93300  0.98162  0.26939  1.0000
  I   I383      1.0  0.69018  0.38785  0.75115  1.0000
  I   I384      1.0  0.57676  0.36341  0.63591  1.0000
