data_image0
_chemical_formula_structural       Ti96I384
_chemical_formula_sum              "Ti96 I384"
_cell_length_a       72.7066
_cell_length_b       72.7002
_cell_length_c       35.5236
_cell_angle_alpha    88.7757
_cell_angle_beta     88.7757
_cell_angle_gamma    62.1586

_space_group_name_H-M_alt    "P 1"
_space_group_IT_number       1

loop_
  _space_group_symop_operation_xyz
  'x, y, z'

loop_
  _atom_site_type_symbol
  _atom_site_label
  _atom_site_symmetry_multiplicity
  _atom_site_fract_x
  _atom_site_fract_y
  _atom_site_fract_z
  _atom_site_occupancy
  Ti  Ti1       1.0  0.55288  0.51114  0.60553  1.0000
  Ti  Ti2       1.0  0.21888  0.91636  0.23460  1.0000
  Ti  Ti3       1.0  0.42421  0.00778  0.84864  1.0000
  Ti  Ti4       1.0  0.98318  0.41172  0.02907  1.0000
  Ti  Ti5       1.0  0.64229  0.49810  0.26646  1.0000
  Ti  Ti6       1.0  0.49909  0.12962  0.25578  1.0000
  Ti  Ti7       1.0  0.57687  0.81482  0.24161  1.0000
  Ti  Ti8       1.0  0.20213  0.56048  0.97118  1.0000
  Ti  Ti9       1.0  0.43223  0.30648  0.23418  1.0000
  Ti  Ti10      1.0  0.65362  0.59285  0.73357  1.0000
  Ti  Ti11      1.0  0.24716  0.14155  0.77430  1.0000
  Ti  Ti12      1.0  0.90785  0.29320  0.99071  1.0000
  Ti  Ti13      1.0  0.68361  0.75276  0.49658  1.0000
  Ti  Ti14      1.0  0.03687  0.40852  0.07288  1.0000
  Ti  Ti15      1.0  0.73072  0.60590  0.60852  1.0000
  Ti  Ti16      1.0  0.30912  0.58367  0.98754  1.0000
  Ti  Ti17      1.0  0.04492  0.20456  0.04530  1.0000
  Ti  Ti18      1.0  0.25531  0.26717  0.99532  1.0000
  Ti  Ti19      1.0  0.10635  0.81006  0.34101  1.0000
  Ti  Ti20      1.0  0.27638  0.79675  0.46870  1.0000
  Ti  Ti21      1.0  0.15960  0.58967  0.00305  1.0000
  Ti  Ti22      1.0  0.06322  0.21270  0.23152  1.0000
  Ti  Ti23      1.0  0.19936  0.99887  0.34466  1.0000
  Ti  Ti24      1.0  0.83441  0.04251  0.23324  1.0000
  Ti  Ti25      1.0  0.50114  0.45185  0.32911  1.0000
  Ti  Ti26      1.0  0.60872  0.90027  0.64968  1.0000
  Ti  Ti27      1.0  0.76924  0.36478  0.27950  1.0000
  Ti  Ti28      1.0  0.28458  0.06609  0.17238  1.0000
  Ti  Ti29      1.0  0.29623  0.74265  0.03999  1.0000
  Ti  Ti30      1.0  0.28209  0.93426  0.58202  1.0000
  Ti  Ti31      1.0  0.41141  0.95742  0.52484  1.0000
  Ti  Ti32      1.0  0.39397  0.85142  0.91947  1.0000
  Ti  Ti33      1.0  0.29445  0.61992  0.31253  1.0000
  Ti  Ti34      1.0  0.78739  0.48596  0.13080  1.0000
  Ti  Ti35      1.0  0.07307  0.51958  0.37812  1.0000
  Ti  Ti36      1.0  0.83239  0.13039  0.06981  1.0000
  Ti  Ti37      1.0  0.10088  0.13385  0.75404  1.0000
  Ti  Ti38      1.0  0.58955  0.92886  0.00892  1.0000
  Ti  Ti39      1.0  0.54619  0.91993  0.85439  1.0000
  Ti  Ti40      1.0  0.54258  0.76070  0.71935  1.0000
  Ti  Ti41      1.0  0.62767  0.40785  0.91516  1.0000
  Ti  Ti42      1.0  0.00311  0.62530  0.78031  1.0000
  Ti  Ti43      1.0  0.93847  0.04540  0.14065  1.0000
  Ti  Ti44      1.0  0.60312  0.46170  0.88556  1.0000
  Ti  Ti45      1.0  0.14423  0.16057  0.56538  1.0000
  Ti  Ti46      1.0  0.36409  0.05523  0.86066  1.0000
  Ti  Ti47      1.0  0.10219  0.96834  0.92555  1.0000
  Ti  Ti48      1.0  0.06765  0.97087  0.18028  1.0000
  Ti  Ti49      1.0  0.85199  0.85458  0.61352  1.0000
  Ti  Ti50      1.0  0.88204  0.47373  0.19296  1.0000
  Ti  Ti51      1.0  0.24531  0.92466  0.13346  1.0000
  Ti  Ti52      1.0  0.75225  0.45918  0.65232  1.0000
  Ti  Ti53      1.0  0.80747  0.73851  0.07386  1.0000
  Ti  Ti54      1.0  0.56433  0.22176  0.23382  1.0000
  Ti  Ti55      1.0  0.62363  0.83900  0.23647  1.0000
  Ti  Ti56      1.0  0.15454  0.74225  0.82883  1.0000
  Ti  Ti57      1.0  0.43214  0.29775  0.15906  1.0000
  Ti  Ti58      1.0  0.34989  0.53798  0.48189  1.0000
  Ti  Ti59      1.0  0.67540  0.84421  0.43987  1.0000
  Ti  Ti60      1.0  0.93733  0.24425  0.08409  1.0000
  Ti  Ti61      1.0  0.68729  0.61838  0.53472  1.0000
  Ti  Ti62      1.0  0.70830  0.77350  0.39359  1.0000
  Ti  Ti63      1.0  0.08752  0.69678  0.10182  1.0000
  Ti  Ti64      1.0  0.24416  0.26476  0.07925  1.0000
  Ti  Ti65      1.0  0.93558  0.72443  0.32595  1.0000
  Ti  Ti66      1.0  0.66997  0.27248  0.25996  1.0000
  Ti  Ti67      1.0  0.88998  0.54542  0.36530  1.0000
  Ti  Ti68      1.0  0.07205  0.78849  0.34313  1.0000
  Ti  Ti69      1.0  0.59691  0.86030  0.62058  1.0000
  Ti  Ti70      1.0  0.91735  0.57084  0.37622  1.0000
  Ti  Ti71      1.0  0.17933  0.06744  0.34947  1.0000
  Ti  Ti72      1.0  0.10996  0.99415  0.84823  1.0000
  Ti  Ti73      1.0  0.74474  0.39670  0.20089  1.0000
  Ti  Ti74      1.0  0.54369  0.41232  0.32808  1.0000
  Ti  Ti75      1.0  0.46299  0.08826  0.09062  1.0000
  Ti  Ti76      1.0  0.24372  0.10820  0.19683  1.0000
  Ti  Ti77      1.0  0.05196  0.73869  0.58449  1.0000
  Ti  Ti78      1.0  0.24667  0.76254  0.98178  1.0000
  Ti  Ti79      1.0  0.81140  0.82537  0.18494  1.0000
  Ti  Ti80      1.0  0.02044  0.46318  0.44388  1.0000
  Ti  Ti81      1.0  0.34382  0.87996  0.93440  1.0000
  Ti  Ti82      1.0  0.94880  0.20824  0.34790  1.0000
  Ti  Ti83      1.0  0.11479  0.51974  0.40149  1.0000
  Ti  Ti84      1.0  0.83771  0.17461  0.11335  1.0000
  Ti  Ti85      1.0  0.13774  0.09806  0.73711  1.0000
  Ti  Ti86      1.0  0.71901  0.21238  0.30264  1.0000
  Ti  Ti87      1.0  0.12110  0.21102  0.62209  1.0000
  Ti  Ti88      1.0  0.78889  0.48517  0.63292  1.0000
  Ti  Ti89      1.0  0.36940  0.40909  0.36395  1.0000
  Ti  Ti90      1.0  0.93216  0.64794  0.79439  1.0000
  Ti  Ti91      1.0  0.21353  0.51180  0.36533  1.0000
  Ti  Ti92      1.0  0.50282  0.72465  0.40552  1.0000
  Ti  Ti93      1.0  0.95141  0.18768  0.03916  1.0000
  Ti  Ti94      1.0  0.03108  0.95587  0.19732  1.0000
  Ti  Ti95      1.0  0.32951  0.37357  0.05878  1.0000
  Ti  Ti96      1.0  0.89546  0.37207  0.51599  1.0000
  I   I1        1.0  0.14917  0.98743  0.85764  1.0000
  I   I2        1.0  0.20734  0.92326  0.15469  1.0000
  I   I3        1.0  0.85981  0.88386  0.65236  1.0000
  I   I4        1.0  0.84323  0.73283  0.09543  1.0000
  I   I5        1.0  0.50099  0.10262  0.30613  1.0000
  I   I6        1.0  0.55323  0.19263  0.21000  1.0000
  I   I7        1.0  0.23148  0.56402  0.93442  1.0000
  I   I8        1.0  0.18556  0.70940  0.79595  1.0000
  I   I9        1.0  0.41759  0.33838  0.17353  1.0000
  I   I10       1.0  0.68685  0.59578  0.75046  1.0000
  I   I11       1.0  0.23091  0.18265  0.78083  1.0000
  I   I12       1.0  0.63792  0.48891  0.19644  1.0000
  I   I13       1.0  0.69626  0.78808  0.46782  1.0000
  I   I14       1.0  0.07455  0.67414  0.06765  1.0000
  I   I15       1.0  0.75715  0.56731  0.64373  1.0000
  I   I16       1.0  0.62882  0.61420  0.79091  1.0000
  I   I17       1.0  0.67205  0.30687  0.26067  1.0000
  I   I18       1.0  0.26267  0.24725  0.93436  1.0000
  I   I19       1.0  0.25188  0.81202  0.52486  1.0000
  I   I20       1.0  0.22658  0.13447  0.71687  1.0000
  I   I21       1.0  0.17374  0.59535  0.93243  1.0000
  I   I22       1.0  0.21327  0.97945  0.27851  1.0000
  I   I23       1.0  0.16105  0.03765  0.33812  1.0000
  I   I24       1.0  0.90446  0.54833  0.43785  1.0000
  I   I25       1.0  0.50090  0.48859  0.31155  1.0000
  I   I26       1.0  0.46797  0.05248  0.05400  1.0000
  I   I27       1.0  0.77958  0.35693  0.34592  1.0000
  I   I28       1.0  0.31492  0.02705  0.18967  1.0000
  I   I29       1.0  0.26535  0.72613  0.01978  1.0000
  I   I30       1.0  0.31858  0.93140  0.57375  1.0000
  I   I31       1.0  0.06001  0.43971  0.44219  1.0000
  I   I32       1.0  0.35653  0.84085  0.91276  1.0000
  I   I33       1.0  0.82299  0.78955  0.22122  1.0000
  I   I34       1.0  0.11386  0.47915  0.35441  1.0000
  I   I35       1.0  0.86874  0.13033  0.09503  1.0000
  I   I36       1.0  0.74873  0.49470  0.11948  1.0000
  I   I37       1.0  0.13721  0.11190  0.81195  1.0000
  I   I38       1.0  0.56789  0.88369  0.82732  1.0000
  I   I39       1.0  0.09638  0.09992  0.74257  1.0000
  I   I40       1.0  0.60101  0.44726  0.96049  1.0000
  I   I41       1.0  0.96033  0.66311  0.77935  1.0000
  I   I42       1.0  0.55896  0.73725  0.65681  1.0000
  I   I43       1.0  0.37933  0.50917  0.43705  1.0000
  I   I44       1.0  0.64304  0.43688  0.86522  1.0000
  I   I45       1.0  0.14474  0.15897  0.49064  1.0000
  I   I46       1.0  0.28962  0.38955  0.03659  1.0000
  I   I47       1.0  0.14214  0.94287  0.93243  1.0000
  I   I48       1.0  0.02760  0.97279  0.26950  1.0000
  I   I49       1.0  0.88598  0.82059  0.61365  1.0000
  I   I50       1.0  0.23846  0.96119  0.16460  1.0000
  I   I51       1.0  0.23118  0.92612  0.29477  1.0000
  I   I52       1.0  0.99807  0.49193  0.49113  1.0000
  I   I53       1.0  0.79897  0.70680  0.10228  1.0000
  I   I54       1.0  0.55748  0.24635  0.17520  1.0000
  I   I55       1.0  0.59879  0.82726  0.18495  1.0000
  I   I56       1.0  0.13438  0.63063  0.98843  1.0000
  I   I57       1.0  0.32455  0.34516  0.09501  1.0000
  I   I58       1.0  0.64983  0.59282  0.65594  1.0000
  I   I59       1.0  0.64197  0.84507  0.40366  1.0000
  I   I60       1.0  0.87154  0.30390  0.01716  1.0000
  I   I61       1.0  0.74717  0.76387  0.39893  1.0000
  I   I62       1.0  0.71274  0.74822  0.33344  1.0000
  I   I63       1.0  0.09355  0.72737  0.07155  1.0000
  I   I64       1.0  0.28011  0.61951  0.00893  1.0000
  I   I65       1.0  0.92225  0.75305  0.27284  1.0000
  I   I66       1.0  0.63268  0.28720  0.28904  1.0000
  I   I67       1.0  0.14279  0.80155  0.37118  1.0000
  I   I68       1.0  0.29299  0.75380  0.44997  1.0000
  I   I69       1.0  0.56311  0.86159  0.59242  1.0000
  I   I70       1.0  0.87312  0.58774  0.38119  1.0000
  I   I71       1.0  0.17307  0.06400  0.42118  1.0000
  I   I72       1.0  0.09812  0.03289  0.86214  1.0000
  I   I73       1.0  0.72961  0.38385  0.14892  1.0000
  I   I74       1.0  0.64746  0.89030  0.65621  1.0000
  I   I75       1.0  0.59469  0.87854  0.69338  1.0000
  I   I76       1.0  0.09337  0.72037  0.56862  1.0000
  I   I77       1.0  0.05679  0.72140  0.65021  1.0000
  I   I78       1.0  0.56842  0.53920  0.59515  1.0000
  I   I79       1.0  0.26780  0.65827  0.30901  1.0000
  I   I80       1.0  0.38765  0.94202  0.49843  1.0000
  I   I81       1.0  0.36706  0.88732  0.87371  1.0000
  I   I82       1.0  0.97342  0.20457  0.29637  1.0000
  I   I83       1.0  0.03366  0.52809  0.39116  1.0000
  I   I84       1.0  0.81505  0.16513  0.01607  1.0000
  I   I85       1.0  0.06901  0.15491  0.70749  1.0000
  I   I86       1.0  0.66547  0.25481  0.19968  1.0000
  I   I87       1.0  0.55411  0.91748  0.92955  1.0000
  I   I88       1.0  0.50420  0.77471  0.69498  1.0000
  I   I89       1.0  0.64394  0.39027  0.84617  1.0000
  I   I90       1.0  0.90318  0.68660  0.79024  1.0000
  I   I91       1.0  0.22559  0.53972  0.39705  1.0000
  I   I92       1.0  0.54046  0.70500  0.43409  1.0000
  I   I93       1.0  0.60567  0.49819  0.90818  1.0000
  I   I94       1.0  0.99465  0.96993  0.16208  1.0000
  I   I95       1.0  0.33221  0.09105  0.88598  1.0000
  I   I96       1.0  0.87479  0.39732  0.46067  1.0000
  I   I97       1.0  0.44398  0.97306  0.88757  1.0000
  I   I98       1.0  0.51938  0.53009  0.63559  1.0000
  I   I99       1.0  0.22951  0.93925  0.06706  1.0000
  I   I100      1.0  0.02402  0.44805  0.05594  1.0000
  I   I101      1.0  0.79871  0.44475  0.65287  1.0000
  I   I102      1.0  0.67529  0.49563  0.29560  1.0000
  I   I103      1.0  0.60025  0.77359  0.22996  1.0000
  I   I104      1.0  0.60229  0.82223  0.28314  1.0000
  I   I105      1.0  0.44756  0.32049  0.28434  1.0000
  I   I106      1.0  0.90843  0.30217  0.91497  1.0000
  I   I107      1.0  0.66830  0.55524  0.75460  1.0000
  I   I108      1.0  0.92303  0.28598  0.07212  1.0000
  I   I109      1.0  0.68120  0.61239  0.61461  1.0000
  I   I110      1.0  0.69056  0.81138  0.35840  1.0000
  I   I111      1.0  0.12650  0.66752  0.10264  1.0000
  I   I112      1.0  0.25530  0.22790  0.02640  1.0000
  I   I113      1.0  0.95010  0.74421  0.36715  1.0000
  I   I114      1.0  0.02591  0.22236  0.98341  1.0000
  I   I115      1.0  0.90435  0.50544  0.37549  1.0000
  I   I116      1.0  0.92420  0.58830  0.31719  1.0000
  I   I117      1.0  0.11341  0.77081  0.37399  1.0000
  I   I118      1.0  0.05794  0.18323  0.26613  1.0000
  I   I119      1.0  0.89251  0.55936  0.29299  1.0000
  I   I120      1.0  0.11079  0.00148  0.94948  1.0000
  I   I121      1.0  0.75509  0.41598  0.14731  1.0000
  I   I122      1.0  0.46590  0.45572  0.33045  1.0000
  I   I123      1.0  0.44829  0.11021  0.03074  1.0000
  I   I124      1.0  0.28350  0.90725  0.52946  1.0000
  I   I125      1.0  0.27637  0.05630  0.10005  1.0000
  I   I126      1.0  0.31771  0.75958  0.06392  1.0000
  I   I127      1.0  0.29904  0.61055  0.38977  1.0000
  I   I128      1.0  0.00546  0.41202  0.96757  1.0000
  I   I129      1.0  0.30562  0.88503  0.92894  1.0000
  I   I130      1.0  0.84754  0.11126  0.00750  1.0000
  I   I131      1.0  0.97106  0.21769  0.39650  1.0000
  I   I132      1.0  0.06782  0.52007  0.30580  1.0000
  I   I133      1.0  0.52250  0.94153  0.80168  1.0000
  I   I134      1.0  0.55529  0.96883  0.98724  1.0000
  I   I135      1.0  0.71731  0.25383  0.27411  1.0000
  I   I136      1.0  0.92791  0.64105  0.86663  1.0000
  I   I137      1.0  0.77004  0.50414  0.69593  1.0000
  I   I138      1.0  0.37449  0.41527  0.43759  1.0000
  I   I139      1.0  0.19699  0.52687  0.30224  1.0000
  I   I140      1.0  0.48959  0.69799  0.40074  1.0000
  I   I141      1.0  0.97609  0.14512  0.01094  1.0000
  I   I142      1.0  0.04600  0.95504  0.12617  1.0000
  I   I143      1.0  0.38240  0.07973  0.86291  1.0000
  I   I144      1.0  0.89701  0.33964  0.48315  1.0000
  I   I145      1.0  0.56920  0.48093  0.64939  1.0000
  I   I146      1.0  0.20394  0.89027  0.24935  1.0000
  I   I147      1.0  0.38586  0.03135  0.79991  1.0000
  I   I148      1.0  0.76410  0.47031  0.58818  1.0000
  I   I149      1.0  0.62944  0.48078  0.32019  1.0000
  I   I150      1.0  0.50980  0.15457  0.28882  1.0000
  I   I151      1.0  0.61843  0.86557  0.28432  1.0000
  I   I152      1.0  0.18980  0.59996  0.01927  1.0000
  I   I153      1.0  0.44993  0.29589  0.09834  1.0000
  I   I154      1.0  0.93670  0.05282  0.21676  1.0000
  I   I155      1.0  0.23315  0.13227  0.84040  1.0000
  I   I156      1.0  0.91886  0.25276  0.01322  1.0000
  I   I157      1.0  0.75885  0.61674  0.57537  1.0000
  I   I158      1.0  0.07318  0.70756  0.17244  1.0000
  I   I159      1.0  0.70090  0.62833  0.47052  1.0000
  I   I160      1.0  0.21174  0.27754  0.12290  1.0000
  I   I161      1.0  0.04305  0.16849  0.06014  1.0000
  I   I162      1.0  0.28756  0.26321  0.03935  1.0000
  I   I163      1.0  0.06841  0.82838  0.30540  1.0000
  I   I164      1.0  0.07358  0.74944  0.35548  1.0000
  I   I165      1.0  0.21179  0.53021  0.91992  1.0000
  I   I166      1.0  0.02376  0.23817  0.21415  1.0000
  I   I167      1.0  0.17069  0.98711  0.37055  1.0000
  I   I168      1.0  0.79961  0.06114  0.19860  1.0000
  I   I169      1.0  0.57119  0.39472  0.38408  1.0000
  I   I170      1.0  0.51432  0.40892  0.37042  1.0000
  I   I171      1.0  0.72967  0.37157  0.25205  1.0000
  I   I172      1.0  0.32192  0.06286  0.13885  1.0000
  I   I173      1.0  0.25025  0.74602  0.90947  1.0000
  I   I174      1.0  0.28338  0.91846  0.64717  1.0000
  I   I175      1.0  0.37278  0.99040  0.54546  1.0000
  I   I176      1.0  0.41638  0.87370  0.91758  1.0000
  I   I177      1.0  0.78569  0.86416  0.15520  1.0000
  I   I178      1.0  0.92805  0.21792  0.43162  1.0000
  I   I179      1.0  0.08831  0.51706  0.44825  1.0000
  I   I180      1.0  0.84047  0.18069  0.17983  1.0000
  I   I181      1.0  0.15497  0.05579  0.73240  1.0000
  I   I182      1.0  0.68080  0.24728  0.33109  1.0000
  I   I183      1.0  0.15091  0.12298  0.54779  1.0000
  I   I184      1.0  0.75329  0.42715  0.61780  1.0000
  I   I185      1.0  0.33514  0.41179  0.33959  1.0000
  I   I186      1.0  0.01683  0.60858  0.84362  1.0000
  I   I187      1.0  0.46695  0.76135  0.39337  1.0000
  I   I188      1.0  0.56823  0.49322  0.86167  1.0000
  I   I189      1.0  0.10208  0.18642  0.58902  1.0000
  I   I190      1.0  0.34501  0.03250  0.85890  1.0000
  I   I191      1.0  0.91094  0.44439  0.22887  1.0000
  I   I192      1.0  0.07971  0.93255  0.19536  1.0000
  I   I193      1.0  0.29927  0.71962  0.09626  1.0000
  I   I194      1.0  0.89442  0.46714  0.11897  1.0000
  I   I195      1.0  0.44994  0.99720  0.79674  1.0000
  I   I196      1.0  0.94869  0.43923  0.00017  1.0000
  I   I197      1.0  0.36777  0.53306  0.55040  1.0000
  I   I198      1.0  0.52635  0.10296  0.21306  1.0000
  I   I199      1.0  0.63487  0.85592  0.18171  1.0000
  I   I200      1.0  0.17124  0.72956  0.89208  1.0000
  I   I201      1.0  0.39272  0.31949  0.25344  1.0000
  I   I202      1.0  0.65339  0.87692  0.48167  1.0000
  I   I203      1.0  0.63235  0.86524  0.60020  1.0000
  I   I204      1.0  0.97201  0.23421  0.11802  1.0000
  I   I205      1.0  0.69118  0.74555  0.56860  1.0000
  I   I206      1.0  0.05172  0.40809  0.14056  1.0000
  I   I207      1.0  0.72287  0.62953  0.66277  1.0000
  I   I208      1.0  0.34535  0.57386  0.01333  1.0000
  I   I209      1.0  0.04554  0.23443  0.09099  1.0000
  I   I210      1.0  0.81407  0.80704  0.11867  1.0000
  I   I211      1.0  0.84726  0.55023  0.34344  1.0000
  I   I212      1.0  0.30158  0.81147  0.47614  1.0000
  I   I213      1.0  0.61333  0.82800  0.56076  1.0000
  I   I214      1.0  0.06705  0.24066  0.27216  1.0000
  I   I215      1.0  0.23310  0.97519  0.38411  1.0000
  I   I216      1.0  0.84035  0.00765  0.26379  1.0000
  I   I217      1.0  0.51360  0.45224  0.40246  1.0000
  I   I218      1.0  0.48451  0.10766  0.10479  1.0000
  I   I219      1.0  0.78963  0.32414  0.26086  1.0000
  I   I220      1.0  0.02895  0.73220  0.53264  1.0000
  I   I221      1.0  0.25897  0.78036  0.06889  1.0000
  I   I222      1.0  0.26806  0.10515  0.13641  1.0000
  I   I223      1.0  0.43047  0.93767  0.58209  1.0000
  I   I224      1.0  0.41808  0.82956  0.86425  1.0000
  I   I225      1.0  0.27928  0.59462  0.28960  1.0000
  I   I226      1.0  0.91283  0.23596  0.31208  1.0000
  I   I227      1.0  0.06153  0.56130  0.38091  1.0000
  I   I228      1.0  0.81036  0.21188  0.09269  1.0000
  I   I229      1.0  0.08156  0.18772  0.01393  1.0000
  I   I230      1.0  0.55762  0.93939  0.06162  1.0000
  I   I231      1.0  0.57618  0.92831  0.84353  1.0000
  I   I232      1.0  0.98548  0.42807  0.09595  1.0000
  I   I233      1.0  0.61697  0.38044  0.93699  1.0000
  I   I234      1.0  0.97497  0.60685  0.78228  1.0000
  I   I235      1.0  0.91190  0.07058  0.09580  1.0000
  I   I236      1.0  0.94734  0.18553  0.96329  1.0000
  I   I237      1.0  0.18416  0.51623  0.41069  1.0000
  I   I238      1.0  0.31991  0.41174  0.02128  1.0000
  I   I239      1.0  0.93150  0.36881  0.52107  1.0000
  I   I240      1.0  0.07915  0.00004  0.21012  1.0000
  I   I241      1.0  0.55182  0.49958  0.53704  1.0000
  I   I242      1.0  0.17911  0.94756  0.24127  1.0000
  I   I243      1.0  0.43992  0.02930  0.87704  1.0000
  I   I244      1.0  0.79317  0.51033  0.58788  1.0000
  I   I245      1.0  0.78331  0.76450  0.12279  1.0000
  I   I246      1.0  0.45882  0.14974  0.24586  1.0000
  I   I247      1.0  0.55016  0.82745  0.18526  1.0000
  I   I248      1.0  0.15672  0.55816  0.98530  1.0000
  I   I249      1.0  0.47016  0.29784  0.18455  1.0000
  I   I250      1.0  0.70692  0.83304  0.48644  1.0000
  I   I251      1.0  0.28097  0.14934  0.75606  1.0000
  I   I252      1.0  0.91566  0.32492  0.98928  1.0000
  I   I253      1.0  0.69324  0.71166  0.51009  1.0000
  I   I254      1.0  0.06365  0.39095  0.01480  1.0000
  I   I255      1.0  0.71930  0.58456  0.54890  1.0000
  I   I256      1.0  0.96501  0.69074  0.35301  1.0000
  I   I257      1.0  0.12560  0.15185  0.72200  1.0000
  I   I258      1.0  0.27732  0.23444  0.11469  1.0000
  I   I259      1.0  0.93794  0.53229  0.35800  1.0000
  I   I260      1.0  0.08630  0.83246  0.40262  1.0000
  I   I261      1.0  0.21153  0.53675  0.03828  1.0000
  I   I262      1.0  0.10103  0.19620  0.20128  1.0000
  I   I263      1.0  0.19774  0.08861  0.36090  1.0000
  I   I264      1.0  0.81880  0.06874  0.29170  1.0000
  I   I265      1.0  0.51524  0.43573  0.25789  1.0000
  I   I266      1.0  0.57384  0.90562  0.60499  1.0000
  I   I267      1.0  0.70461  0.42891  0.21455  1.0000
  I   I268      1.0  0.28410  0.08038  0.24471  1.0000
  I   I269      1.0  0.21285  0.76039  0.00801  1.0000
  I   I270      1.0  0.20647  0.13949  0.18159  1.0000
  I   I271      1.0  0.43592  0.95459  0.47096  1.0000
  I   I272      1.0  0.36367  0.86365  0.99731  1.0000
  I   I273      1.0  0.32748  0.60596  0.27363  1.0000
  I   I274      1.0  0.81665  0.45329  0.09515  1.0000
  I   I275      1.0  0.12360  0.54397  0.43637  1.0000
  I   I276      1.0  0.86180  0.18685  0.07758  1.0000
  I   I277      1.0  0.95307  0.16956  0.35689  1.0000
  I   I278      1.0  0.62091  0.93092  0.02519  1.0000
  I   I279      1.0  0.16595  0.14044  0.62717  1.0000
  I   I280      1.0  0.76425  0.43448  0.72267  1.0000
  I   I281      1.0  0.65810  0.40906  0.94786  1.0000
  I   I282      1.0  0.02785  0.61205  0.72277  1.0000
  I   I283      1.0  0.97448  0.04327  0.12013  1.0000
  I   I284      1.0  0.95537  0.16949  0.10632  1.0000
  I   I285      1.0  0.08484  0.22658  0.65421  1.0000
  I   I286      1.0  0.33894  0.35938  0.99098  1.0000
  I   I287      1.0  0.10035  0.99360  0.78195  1.0000
  I   I288      1.0  0.10184  0.96122  0.13106  1.0000
  I   I289      1.0  0.84370  0.86928  0.54913  1.0000
  I   I290      1.0  0.84642  0.46886  0.19347  1.0000
  I   I291      1.0  0.25533  0.89314  0.19277  1.0000
  I   I292      1.0  0.71767  0.48830  0.68133  1.0000
  I   I293      1.0  0.79795  0.76311  0.01960  1.0000
  I   I294      1.0  0.60005  0.20950  0.27213  1.0000
  I   I295      1.0  0.65991  0.80587  0.26035  1.0000
  I   I296      1.0  0.15762  0.77547  0.80580  1.0000
  I   I297      1.0  0.43630  0.26856  0.22881  1.0000
  I   I298      1.0  0.32226  0.52351  0.47200  1.0000
  I   I299      1.0  0.29633  0.55761  0.00178  1.0000
  I   I300      1.0  0.90883  0.21158  0.08048  1.0000
  I   I301      1.0  0.66285  0.61472  0.48489  1.0000
  I   I302      1.0  0.64460  0.76606  0.48842  1.0000
  I   I303      1.0  0.54638  0.73204  0.76576  1.0000
  I   I304      1.0  0.23885  0.30417  0.06668  1.0000
  I   I305      1.0  0.30607  0.58272  0.91152  1.0000
  I   I306      1.0  0.74917  0.18429  0.26997  1.0000
  I   I307      1.0  0.12214  0.79704  0.27245  1.0000
  I   I308      1.0  0.25783  0.81917  0.41353  1.0000
  I   I309      1.0  0.14222  0.59664  0.08036  1.0000
  I   I310      1.0  0.93306  0.01247  0.15095  1.0000
  I   I311      1.0  0.21497  0.02856  0.34827  1.0000
  I   I312      1.0  0.07899  0.96083  0.96776  1.0000
  I   I313      1.0  0.76273  0.40394  0.26934  1.0000
  I   I314      1.0  0.56111  0.43567  0.30573  1.0000
  I   I315      1.0  0.43683  0.10070  0.14748  1.0000
  I   I316      1.0  0.24881  0.13505  0.24680  1.0000
  I   I317      1.0  0.23966  0.07660  0.18204  1.0000
  I   I318      1.0  0.22887  0.80173  0.97371  1.0000
  I   I319      1.0  0.76911  0.83774  0.19898  1.0000
  I   I320      1.0  0.97724  0.38088  0.02698  1.0000
  I   I321      1.0  0.41491  0.83164  0.98120  1.0000
  I   I322      1.0  0.78395  0.48464  0.20197  1.0000
  I   I323      1.0  0.15298  0.48819  0.40752  1.0000
  I   I324      1.0  0.80978  0.15613  0.13463  1.0000
  I   I325      1.0  0.17193  0.09182  0.70668  1.0000
  I   I326      1.0  0.74250  0.20735  0.36785  1.0000
  I   I327      1.0  0.16020  0.18638  0.56675  1.0000
  I   I328      1.0  0.55059  0.78933  0.74690  1.0000
  I   I329      1.0  0.39702  0.37607  0.33450  1.0000
  I   I330      1.0  0.91242  0.62877  0.76502  1.0000
  I   I331      1.0  0.11830  0.24882  0.60427  1.0000
  I   I332      1.0  0.35213  0.57074  0.46370  1.0000
  I   I333      1.0  0.59070  0.43265  0.86559  1.0000
  I   I334      1.0  0.02975  0.99939  0.17231  1.0000
  I   I335      1.0  0.39211  0.02729  0.91417  1.0000
  I   I336      1.0  0.87798  0.36365  0.57334  1.0000
  I   I337      1.0  0.81830  0.85579  0.63899  1.0000
  I   I338      1.0  0.87943  0.50892  0.21507  1.0000
  I   I339      1.0  0.28501  0.90912  0.12506  1.0000
  I   I340      1.0  0.01018  0.48991  0.38952  1.0000
  I   I341      1.0  0.61925  0.53920  0.27324  1.0000
  I   I342      1.0  0.53546  0.25222  0.26599  1.0000
  I   I343      1.0  0.55404  0.84637  0.29337  1.0000
  I   I344      1.0  0.11915  0.73891  0.82688  1.0000
  I   I345      1.0  0.41265  0.27765  0.12483  1.0000
  I   I346      1.0  0.94425  0.58366  0.40910  1.0000
  I   I347      1.0  0.68223  0.86206  0.38545  1.0000
  I   I348      1.0  0.91370  0.25680  0.14749  1.0000
  I   I349      1.0  0.69893  0.64735  0.55988  1.0000
  I   I350      1.0  0.70693  0.73547  0.42977  1.0000
  I   I351      1.0  0.02377  0.38138  0.05654  1.0000
  I   I352      1.0  0.21611  0.27605  0.98951  1.0000
  I   I353      1.0  0.89853  0.73460  0.35454  1.0000
  I   I354      1.0  0.69404  0.20165  0.26707  1.0000
  I   I355      1.0  0.08086  0.76356  0.27695  1.0000
  I   I356      1.0  0.05160  0.79808  0.40302  1.0000
  I   I357      1.0  0.58763  0.93950  0.66870  1.0000
  I   I358      1.0  0.86517  0.04136  0.19609  1.0000
  I   I359      1.0  0.14329  0.09283  0.32086  1.0000
  I   I360      1.0  0.10409  0.94498  0.86100  1.0000
  I   I361      1.0  0.78254  0.36181  0.19537  1.0000
  I   I362      1.0  0.55693  0.37724  0.29461  1.0000
  I   I363      1.0  0.60100  0.83096  0.66072  1.0000
  I   I364      1.0  0.26131  0.97450  0.57348  1.0000
  I   I365      1.0  0.03626  0.77936  0.61143  1.0000
  I   I366      1.0  0.28824  0.75305  0.96742  1.0000
  I   I367      1.0  0.83724  0.83948  0.19326  1.0000
  I   I368      1.0  0.99004  0.45492  0.42594  1.0000
  I   I369      1.0  0.32360  0.92232  0.93299  1.0000
  I   I370      1.0  0.80155  0.51097  0.10628  1.0000
  I   I371      1.0  0.11070  0.53416  0.32959  1.0000
  I   I372      1.0  0.80741  0.11239  0.06932  1.0000
  I   I373      1.0  0.06751  0.15693  0.79888  1.0000
  I   I374      1.0  0.60029  0.88740  0.02913  1.0000
  I   I375      1.0  0.14598  0.21449  0.66795  1.0000
  I   I376      1.0  0.82789  0.47159  0.64093  1.0000
  I   I377      1.0  0.36346  0.44749  0.34726  1.0000
  I   I378      1.0  0.00792  0.65583  0.80664  1.0000
  I   I379      1.0  0.23845  0.47097  0.37004  1.0000
  I   I380      1.0  0.51480  0.71681  0.33440  1.0000
  I   I381      1.0  0.97725  0.20123  0.04688  1.0000
  I   I382      1.0  0.03303  0.92198  0.22367  1.0000
  I   I383      1.0  0.34024  0.38733  0.11805  1.0000
  I   I384      1.0  0.07036  0.00144  0.87521  1.0000
