data_image0
_chemical_formula_structural       Ti96I384
_chemical_formula_sum              "Ti96 I384"
_cell_length_a       39.4743
_cell_length_b       38.7703
_cell_length_c       22.2084
_cell_angle_alpha    88.7757
_cell_angle_beta     88.7757
_cell_angle_gamma    62.1586

_space_group_name_H-M_alt    "P 1"
_space_group_IT_number       1

loop_
  _space_group_symop_operation_xyz
  'x, y, z'

loop_
  _atom_site_type_symbol
  _atom_site_label
  _atom_site_symmetry_multiplicity
  _atom_site_fract_x
  _atom_site_fract_y
  _atom_site_fract_z
  _atom_site_occupancy
  Ti  Ti1       1.0  0.18058  0.06563  0.14841  1.0000
  Ti  Ti2       1.0  0.16761  0.06824  0.49446  1.0000
  Ti  Ti3       1.0  0.17719  0.06367  0.81133  1.0000
  Ti  Ti4       1.0  0.15356  0.32787  0.32818  1.0000
  Ti  Ti5       1.0  0.15154  0.32643  0.67637  1.0000
  Ti  Ti6       1.0  0.15392  0.34085  0.00042  1.0000
  Ti  Ti7       1.0  0.15167  0.58803  0.36453  1.0000
  Ti  Ti8       1.0  0.17267  0.58231  0.67730  1.0000
  Ti  Ti9       1.0  0.13989  0.58702  0.02246  1.0000
  Ti  Ti10      1.0  0.13026  0.87716  0.24223  1.0000
  Ti  Ti11      1.0  0.13466  0.87929  0.55699  1.0000
  Ti  Ti12      1.0  0.10758  0.88153  0.90435  1.0000
  Ti  Ti13      1.0  0.44165  0.09654  0.28001  1.0000
  Ti  Ti14      1.0  0.41897  0.08637  0.59998  1.0000
  Ti  Ti15      1.0  0.44069  0.08823  0.93089  1.0000
  Ti  Ti16      1.0  0.40842  0.31993  0.33250  1.0000
  Ti  Ti17      1.0  0.41313  0.31903  0.66123  1.0000
  Ti  Ti18      1.0  0.43191  0.32144  0.97863  1.0000
  Ti  Ti19      1.0  0.34762  0.64960  0.28448  1.0000
  Ti  Ti20      1.0  0.37376  0.62511  0.60654  1.0000
  Ti  Ti21      1.0  0.33176  0.66296  0.93436  1.0000
  Ti  Ti22      1.0  0.44633  0.83294  0.15756  1.0000
  Ti  Ti23      1.0  0.44068  0.82892  0.48621  1.0000
  Ti  Ti24      1.0  0.41971  0.86402  0.82663  1.0000
  Ti  Ti25      1.0  0.67138  0.09133  0.31671  1.0000
  Ti  Ti26      1.0  0.66854  0.09973  0.63349  1.0000
  Ti  Ti27      1.0  0.67537  0.07893  0.96508  1.0000
  Ti  Ti28      1.0  0.59989  0.40860  0.28755  1.0000
  Ti  Ti29      1.0  0.61270  0.39787  0.60908  1.0000
  Ti  Ti30      1.0  0.62336  0.37619  0.94222  1.0000
  Ti  Ti31      1.0  0.68343  0.58633  0.14568  1.0000
  Ti  Ti32      1.0  0.69633  0.58973  0.48051  1.0000
  Ti  Ti33      1.0  0.67567  0.58369  0.81270  1.0000
  Ti  Ti34      1.0  0.69096  0.80846  0.23931  1.0000
  Ti  Ti35      1.0  0.67704  0.81392  0.55101  1.0000
  Ti  Ti36      1.0  0.67542  0.80679  0.89963  1.0000
  Ti  Ti37      1.0  0.87029  0.11551  0.19931  1.0000
  Ti  Ti38      1.0  0.85338  0.12201  0.53047  1.0000
  Ti  Ti39      1.0  0.84468  0.12619  0.86667  1.0000
  Ti  Ti40      1.0  0.92151  0.32462  0.16981  1.0000
  Ti  Ti41      1.0  0.92055  0.32340  0.50311  1.0000
  Ti  Ti42      1.0  0.92374  0.31855  0.84914  1.0000
  Ti  Ti43      1.0  0.92244  0.58566  0.25061  1.0000
  Ti  Ti44      1.0  0.92205  0.58132  0.56958  1.0000
  Ti  Ti45      1.0  0.92454  0.59893  0.91113  1.0000
  Ti  Ti46      1.0  0.90577  0.83184  0.30763  1.0000
  Ti  Ti47      1.0  0.90756  0.83490  0.65006  1.0000
  Ti  Ti48      1.0  0.91573  0.84528  0.97380  1.0000
  Ti  Ti49      1.0  0.11828  0.11150  0.97698  1.0000
  Ti  Ti50      1.0  0.12419  0.12585  0.30771  1.0000
  Ti  Ti51      1.0  0.09740  0.12352  0.64615  1.0000
  Ti  Ti52      1.0  0.09110  0.40338  0.16467  1.0000
  Ti  Ti53      1.0  0.08509  0.38811  0.49830  1.0000
  Ti  Ti54      1.0  0.07655  0.39382  0.83344  1.0000
  Ti  Ti55      1.0  0.10148  0.65493  0.18865  1.0000
  Ti  Ti56      1.0  0.11130  0.65774  0.51840  1.0000
  Ti  Ti57      1.0  0.08726  0.65377  0.85294  1.0000
  Ti  Ti58      1.0  0.05866  0.93366  0.06759  1.0000
  Ti  Ti59      1.0  0.06914  0.94790  0.39920  1.0000
  Ti  Ti60      1.0  0.05413  0.93270  0.73312  1.0000
  Ti  Ti61      1.0  0.39836  0.15036  0.09247  1.0000
  Ti  Ti62      1.0  0.36520  0.16020  0.42560  1.0000
  Ti  Ti63      1.0  0.36841  0.13737  0.77042  1.0000
  Ti  Ti64      1.0  0.36426  0.35555  0.14605  1.0000
  Ti  Ti65      1.0  0.33538  0.36458  0.50168  1.0000
  Ti  Ti66      1.0  0.34898  0.37752  0.82342  1.0000
  Ti  Ti67      1.0  0.27497  0.70702  0.12538  1.0000
  Ti  Ti68      1.0  0.28541  0.68679  0.45120  1.0000
  Ti  Ti69      1.0  0.25938  0.71042  0.77803  1.0000
  Ti  Ti70      1.0  0.36861  0.91230  0.00807  1.0000
  Ti  Ti71      1.0  0.37563  0.88794  0.33062  1.0000
  Ti  Ti72      1.0  0.36113  0.90694  0.63066  1.0000
  Ti  Ti73      1.0  0.62971  0.14389  0.13427  1.0000
  Ti  Ti74      1.0  0.59922  0.16877  0.48321  1.0000
  Ti  Ti75      1.0  0.62661  0.15517  0.81887  1.0000
  Ti  Ti76      1.0  0.54462  0.43966  0.11872  1.0000
  Ti  Ti77      1.0  0.54162  0.45646  0.45891  1.0000
  Ti  Ti78      1.0  0.54866  0.43838  0.77506  1.0000
  Ti  Ti79      1.0  0.60714  0.65749  0.96732  1.0000
  Ti  Ti80      1.0  0.62677  0.66181  0.32432  1.0000
  Ti  Ti81      1.0  0.61724  0.63333  0.63906  1.0000
  Ti  Ti82      1.0  0.62002  0.88118  0.07345  1.0000
  Ti  Ti83      1.0  0.61978  0.87422  0.40042  1.0000
  Ti  Ti84      1.0  0.61722  0.87847  0.73849  1.0000
  Ti  Ti85      1.0  0.80087  0.18740  0.03577  1.0000
  Ti  Ti86      1.0  0.81325  0.18077  0.35575  1.0000
  Ti  Ti87      1.0  0.79775  0.18876  0.68711  1.0000
  Ti  Ti88      1.0  0.85824  0.38304  0.01194  1.0000
  Ti  Ti89      1.0  0.87269  0.39277  0.33100  1.0000
  Ti  Ti90      1.0  0.87095  0.38831  0.68405  1.0000
  Ti  Ti91      1.0  0.86275  0.65833  0.09245  1.0000
  Ti  Ti92      1.0  0.85409  0.64699  0.41701  1.0000
  Ti  Ti93      1.0  0.85962  0.65049  0.74834  1.0000
  Ti  Ti94      1.0  0.84720  0.89688  0.14368  1.0000
  Ti  Ti95      1.0  0.84117  0.88641  0.48715  1.0000
  Ti  Ti96      1.0  0.83896  0.88887  0.82157  1.0000
  I   I1        1.0  0.10942  0.08784  0.21301  1.0000
  I   I2        1.0  0.08552  0.09459  0.54649  1.0000
  I   I3        1.0  0.10701  0.07898  0.87965  1.0000
  I   I4        1.0  0.07754  0.35745  0.38316  1.0000
  I   I5        1.0  0.08332  0.33955  0.74640  1.0000
  I   I6        1.0  0.07699  0.37643  0.06998  1.0000
  I   I7        1.0  0.08012  0.64092  0.42026  1.0000
  I   I8        1.0  0.08193  0.61805  0.74738  1.0000
  I   I9        1.0  0.06725  0.62712  0.08950  1.0000
  I   I10       1.0  0.05750  0.91413  0.30126  1.0000
  I   I11       1.0  0.05333  0.89992  0.62701  1.0000
  I   I12       1.0  0.03629  0.91635  0.96526  1.0000
  I   I13       1.0  0.36082  0.13881  0.31445  1.0000
  I   I14       1.0  0.34147  0.11973  0.65502  1.0000
  I   I15       1.0  0.37300  0.11554  0.00752  1.0000
  I   I16       1.0  0.33323  0.33913  0.37850  1.0000
  I   I17       1.0  0.35145  0.32689  0.73954  1.0000
  I   I18       1.0  0.36530  0.32113  0.04437  1.0000
  I   I19       1.0  0.28116  0.65070  0.33977  1.0000
  I   I20       1.0  0.27768  0.65772  0.69325  1.0000
  I   I21       1.0  0.27867  0.66165  0.02456  1.0000
  I   I22       1.0  0.37424  0.85478  0.22100  1.0000
  I   I23       1.0  0.36187  0.85895  0.53804  1.0000
  I   I24       1.0  0.34697  0.90356  0.89275  1.0000
  I   I25       1.0  0.57990  0.13901  0.38326  1.0000
  I   I26       1.0  0.60311  0.13126  0.71407  1.0000
  I   I27       1.0  0.61583  0.10452  0.04199  1.0000
  I   I28       1.0  0.51714  0.43489  0.36105  1.0000
  I   I29       1.0  0.53886  0.41981  0.66845  1.0000
  I   I30       1.0  0.53858  0.40490  0.01220  1.0000
  I   I31       1.0  0.61448  0.62223  0.21950  1.0000
  I   I32       1.0  0.61994  0.60237  0.53012  1.0000
  I   I33       1.0  0.59629  0.61420  0.87342  1.0000
  I   I34       1.0  0.61881  0.82651  0.29684  1.0000
  I   I35       1.0  0.59835  0.85072  0.63498  1.0000
  I   I36       1.0  0.61222  0.84276  0.97796  1.0000
  I   I37       1.0  0.80070  0.13780  0.25812  1.0000
  I   I38       1.0  0.77458  0.16622  0.58122  1.0000
  I   I39       1.0  0.76980  0.16844  0.93167  1.0000
  I   I40       1.0  0.84810  0.37329  0.22122  1.0000
  I   I41       1.0  0.84845  0.38227  0.56687  1.0000
  I   I42       1.0  0.84562  0.36159  0.90160  1.0000
  I   I43       1.0  0.84921  0.61306  0.30841  1.0000
  I   I44       1.0  0.84707  0.61717  0.64882  1.0000
  I   I45       1.0  0.85668  0.62664  0.97919  1.0000
  I   I46       1.0  0.83316  0.85904  0.37881  1.0000
  I   I47       1.0  0.82828  0.85316  0.72526  1.0000
  I   I48       1.0  0.85486  0.84819  0.05091  1.0000
  I   I49       1.0  0.14067  0.14010  0.07737  1.0000
  I   I50       1.0  0.15088  0.14389  0.41517  1.0000
  I   I51       1.0  0.13220  0.13480  0.75416  1.0000
  I   I52       1.0  0.13658  0.40053  0.26797  1.0000
  I   I53       1.0  0.10095  0.41378  0.60727  1.0000
  I   I54       1.0  0.11367  0.41291  0.92495  1.0000
  I   I55       1.0  0.12978  0.67107  0.29224  1.0000
  I   I56       1.0  0.14117  0.66186  0.63258  1.0000
  I   I57       1.0  0.13154  0.65538  0.95007  1.0000
  I   I58       1.0  0.08984  0.95468  0.17095  1.0000
  I   I59       1.0  0.09991  0.96163  0.51050  1.0000
  I   I60       1.0  0.08719  0.95198  0.82232  1.0000
  I   I61       1.0  0.41235  0.17071  0.20902  1.0000
  I   I62       1.0  0.38253  0.16735  0.54063  1.0000
  I   I63       1.0  0.38722  0.16190  0.88249  1.0000
  I   I64       1.0  0.38982  0.37945  0.24140  1.0000
  I   I65       1.0  0.36082  0.39340  0.60219  1.0000
  I   I66       1.0  0.37951  0.39722  0.91548  1.0000
  I   I67       1.0  0.29266  0.73738  0.22372  1.0000
  I   I68       1.0  0.31950  0.70143  0.56284  1.0000
  I   I69       1.0  0.27175  0.73996  0.88218  1.0000
  I   I70       1.0  0.39900  0.91175  0.11902  1.0000
  I   I71       1.0  0.42232  0.90097  0.41697  1.0000
  I   I72       1.0  0.38000  0.93426  0.74242  1.0000
  I   I73       1.0  0.65986  0.15964  0.24082  1.0000
  I   I74       1.0  0.63766  0.18157  0.57271  1.0000
  I   I75       1.0  0.66482  0.15203  0.91813  1.0000
  I   I76       1.0  0.55758  0.47590  0.22260  1.0000
  I   I77       1.0  0.57209  0.47693  0.55729  1.0000
  I   I78       1.0  0.57709  0.45599  0.88632  1.0000
  I   I79       1.0  0.63404  0.68077  0.06337  1.0000
  I   I80       1.0  0.66071  0.67210  0.42175  1.0000
  I   I81       1.0  0.63056  0.66141  0.75492  1.0000
  I   I82       1.0  0.65968  0.88866  0.16450  1.0000
  I   I83       1.0  0.64513  0.88868  0.50323  1.0000
  I   I84       1.0  0.66080  0.88148  0.82792  1.0000
  I   I85       1.0  0.84548  0.19247  0.13953  1.0000
  I   I86       1.0  0.83117  0.19545  0.46402  1.0000
  I   I87       1.0  0.82913  0.19917  0.79834  1.0000
  I   I88       1.0  0.89473  0.40267  0.11498  1.0000
  I   I89       1.0  0.90440  0.39442  0.43944  1.0000
  I   I90       1.0  0.90072  0.39978  0.79132  1.0000
  I   I91       1.0  0.89191  0.66707  0.19477  1.0000
  I   I92       1.0  0.88219  0.66483  0.51054  1.0000
  I   I93       1.0  0.87930  0.67657  0.84555  1.0000
  I   I94       1.0  0.87216  0.91230  0.25569  1.0000
  I   I95       1.0  0.86686  0.91182  0.59248  1.0000
  I   I96       1.0  0.86051  0.91812  0.91732  1.0000
  I   I97       1.0  0.18714  0.09813  0.90336  1.0000
  I   I98       1.0  0.20038  0.09291  0.24972  1.0000
  I   I99       1.0  0.17388  0.10162  0.59921  1.0000
  I   I100      1.0  0.16500  0.37524  0.09167  1.0000
  I   I101      1.0  0.17109  0.35201  0.43742  1.0000
  I   I102      1.0  0.15410  0.37167  0.76310  1.0000
  I   I103      1.0  0.17014  0.60733  0.12480  1.0000
  I   I104      1.0  0.18097  0.60849  0.46576  1.0000
  I   I105      1.0  0.18526  0.60554  0.78433  1.0000
  I   I106      1.0  0.12966  0.90645  0.99585  1.0000
  I   I107      1.0  0.14009  0.92499  0.33332  1.0000
  I   I108      1.0  0.13739  0.90107  0.67267  1.0000
  I   I109      1.0  0.46596  0.12709  0.01731  1.0000
  I   I110      1.0  0.44556  0.13142  0.38021  1.0000
  I   I111      1.0  0.43801  0.10967  0.70065  1.0000
  I   I112      1.0  0.43409  0.35695  0.08546  1.0000
  I   I113      1.0  0.39107  0.36854  0.43054  1.0000
  I   I114      1.0  0.41530  0.36934  0.76186  1.0000
  I   I115      1.0  0.34327  0.69770  0.05700  1.0000
  I   I116      1.0  0.36126  0.67260  0.40189  1.0000
  I   I117      1.0  0.37628  0.66696  0.69073  1.0000
  I   I118      1.0  0.43247  0.90248  0.91630  1.0000
  I   I119      1.0  0.45163  0.85104  0.27503  1.0000
  I   I120      1.0  0.43777  0.87569  0.58693  1.0000
  I   I121      1.0  0.70135  0.10549  0.06703  1.0000
  I   I122      1.0  0.67011  0.13986  0.40239  1.0000
  I   I123      1.0  0.69568  0.11871  0.74039  1.0000
  I   I124      1.0  0.62015  0.40979  0.05688  1.0000
  I   I125      1.0  0.60673  0.44600  0.38376  1.0000
  I   I126      1.0  0.62143  0.43302  0.71196  1.0000
  I   I127      1.0  0.68023  0.62763  0.90598  1.0000
  I   I128      1.0  0.69854  0.62780  0.22851  1.0000
  I   I129      1.0  0.69755  0.61151  0.59866  1.0000
  I   I130      1.0  0.69345  0.84338  0.99494  1.0000
  I   I131      1.0  0.69438  0.85654  0.35014  1.0000
  I   I132      1.0  0.69091  0.84737  0.66918  1.0000
  I   I133      1.0  0.86784  0.15391  0.96385  1.0000
  I   I134      1.0  0.89102  0.14776  0.30725  1.0000
  I   I135      1.0  0.87151  0.14754  0.62641  1.0000
  I   I136      1.0  0.93103  0.35214  0.95148  1.0000
  I   I137      1.0  0.94940  0.35297  0.28495  1.0000
  I   I138      1.0  0.94154  0.34183  0.61573  1.0000
  I   I139      1.0  0.93906  0.63550  0.01451  1.0000
  I   I140      1.0  0.93112  0.61545  0.36178  1.0000
  I   I141      1.0  0.93533  0.61416  0.67530  1.0000
  I   I142      1.0  0.91833  0.89021  0.06660  1.0000
  I   I143      1.0  0.91129  0.86164  0.41220  1.0000
  I   I144      1.0  0.90449  0.87697  0.74492  1.0000
  I   I145      1.0  0.16348  0.03531  0.03840  1.0000
  I   I146      1.0  0.15327  0.04890  0.37911  1.0000
  I   I147      1.0  0.14314  0.05195  0.70308  1.0000
  I   I148      1.0  0.12722  0.32390  0.20948  1.0000
  I   I149      1.0  0.12715  0.31431  0.57041  1.0000
  I   I150      1.0  0.12418  0.32377  0.89804  1.0000
  I   I151      1.0  0.11695  0.58734  0.25683  1.0000
  I   I152      1.0  0.12463  0.58504  0.58003  1.0000
  I   I153      1.0  0.11415  0.57843  0.91492  1.0000
  I   I154      1.0  0.10443  0.86552  0.13587  1.0000
  I   I155      1.0  0.10487  0.87159  0.45007  1.0000
  I   I156      1.0  0.08192  0.85975  0.79319  1.0000
  I   I157      1.0  0.42652  0.08174  0.16151  1.0000
  I   I158      1.0  0.39743  0.07459  0.48575  1.0000
  I   I159      1.0  0.40899  0.06641  0.83058  1.0000
  I   I160      1.0  0.40576  0.28557  0.22423  1.0000
  I   I161      1.0  0.39600  0.29534  0.55893  1.0000
  I   I162      1.0  0.39983  0.29799  0.88796  1.0000
  I   I163      1.0  0.32822  0.62896  0.18314  1.0000
  I   I164      1.0  0.33419  0.61298  0.50434  1.0000
  I   I165      1.0  0.29715  0.64034  0.85675  1.0000
  I   I166      1.0  0.40397  0.83456  0.03890  1.0000
  I   I167      1.0  0.40464  0.81184  0.39254  1.0000
  I   I168      1.0  0.40034  0.84057  0.71071  1.0000
  I   I169      1.0  0.64761  0.06956  0.21120  1.0000
  I   I170      1.0  0.62390  0.09433  0.53837  1.0000
  I   I171      1.0  0.64398  0.06576  0.86346  1.0000
  I   I172      1.0  0.58142  0.36766  0.19477  1.0000
  I   I173      1.0  0.59539  0.37297  0.50156  1.0000
  I   I174      1.0  0.59444  0.36050  0.84313  1.0000
  I   I175      1.0  0.64319  0.58290  0.04325  1.0000
  I   I176      1.0  0.66894  0.58113  0.36919  1.0000
  I   I177      1.0  0.65230  0.56000  0.71027  1.0000
  I   I178      1.0  0.66329  0.79221  0.14229  1.0000
  I   I179      1.0  0.65519  0.79305  0.45151  1.0000
  I   I180      1.0  0.63503  0.80341  0.79972  1.0000
  I   I181      1.0  0.83712  0.11219  0.08910  1.0000
  I   I182      1.0  0.81316  0.11512  0.42569  1.0000
  I   I183      1.0  0.81599  0.11900  0.75905  1.0000
  I   I184      1.0  0.88777  0.30671  0.06794  1.0000
  I   I185      1.0  0.88695  0.32237  0.39498  1.0000
  I   I186      1.0  0.89589  0.31046  0.74743  1.0000
  I   I187      1.0  0.89773  0.57758  0.13523  1.0000
  I   I188      1.0  0.89222  0.56835  0.47118  1.0000
  I   I189      1.0  0.89240  0.57900  0.82259  1.0000
  I   I190      1.0  0.88615  0.81816  0.19412  1.0000
  I   I191      1.0  0.88355  0.81328  0.54767  1.0000
  I   I192      1.0  0.88879  0.81817  0.89169  1.0000
  I   I193      1.0  0.24594  0.06260  0.10688  1.0000
  I   I194      1.0  0.24052  0.04900  0.47632  1.0000
  I   I195      1.0  0.24539  0.04944  0.76398  1.0000
  I   I196      1.0  0.21857  0.30914  0.28029  1.0000
  I   I197      1.0  0.21560  0.31713  0.62752  1.0000
  I   I198      1.0  0.22502  0.31642  0.96507  1.0000
  I   I199      1.0  0.21984  0.55912  0.31802  1.0000
  I   I200      1.0  0.24014  0.56957  0.63900  1.0000
  I   I201      1.0  0.21235  0.55711  0.98307  1.0000
  I   I202      1.0  0.19825  0.85899  0.20182  1.0000
  I   I203      1.0  0.20390  0.87031  0.53600  1.0000
  I   I204      1.0  0.17413  0.85726  0.84489  1.0000
  I   I205      1.0  0.50995  0.08169  0.24421  1.0000
  I   I206      1.0  0.48658  0.06647  0.54689  1.0000
  I   I207      1.0  0.50026  0.07292  0.85870  1.0000
  I   I208      1.0  0.47813  0.31076  0.32390  1.0000
  I   I209      1.0  0.47285  0.32462  0.61500  1.0000
  I   I210      1.0  0.48745  0.32749  0.92775  1.0000
  I   I211      1.0  0.40940  0.65123  0.23890  1.0000
  I   I212      1.0  0.43926  0.59847  0.55913  1.0000
  I   I213      1.0  0.38466  0.67779  0.88710  1.0000
  I   I214      1.0  0.51289  0.82118  0.11600  1.0000
  I   I215      1.0  0.51216  0.80502  0.45630  1.0000
  I   I216      1.0  0.47998  0.84989  0.76116  1.0000
  I   I217      1.0  0.74089  0.05993  0.27563  1.0000
  I   I218      1.0  0.73102  0.08411  0.56743  1.0000
  I   I219      1.0  0.74766  0.04587  0.92257  1.0000
  I   I220      1.0  0.66449  0.40417  0.25569  1.0000
  I   I221      1.0  0.67506  0.38551  0.55318  1.0000
  I   I222      1.0  0.68738  0.37123  0.91417  1.0000
  I   I223      1.0  0.73849  0.58029  0.07250  1.0000
  I   I224      1.0  0.76746  0.57527  0.46081  1.0000
  I   I225      1.0  0.74613  0.56627  0.80077  1.0000
  I   I226      1.0  0.75397  0.80276  0.19838  1.0000
  I   I227      1.0  0.74792  0.79395  0.52770  1.0000
  I   I228      1.0  0.74815  0.78475  0.86001  1.0000
  I   I229      1.0  0.93403  0.11654  0.15448  1.0000
  I   I230      1.0  0.92361  0.08696  0.49161  1.0000
  I   I231      1.0  0.91913  0.08556  0.83465  1.0000
  I   I232      1.0  0.98274  0.30689  0.11017  1.0000
  I   I233      1.0  0.98644  0.28613  0.44683  1.0000
  I   I234      1.0  0.99614  0.29743  0.81159  1.0000
  I   I235      1.0  0.99321  0.56601  0.22161  1.0000
  I   I236      1.0  0.99088  0.56504  0.53099  1.0000
  I   I237      1.0  0.99030  0.59417  0.85579  1.0000
  I   I238      1.0  0.97784  0.80799  0.27412  1.0000
  I   I239      1.0  0.97369  0.82069  0.60687  1.0000
  I   I240      1.0  0.97130  0.84890  0.90904  1.0000
  I   I241      1.0  0.21537  0.99403  0.19151  1.0000
  I   I242      1.0  0.18749  0.00001  0.54001  1.0000
  I   I243      1.0  0.20101  0.99325  0.84795  1.0000
  I   I244      1.0  0.16951  0.25960  0.37491  1.0000
  I   I245      1.0  0.17403  0.25741  0.72177  1.0000
  I   I246      1.0  0.16935  0.26907  0.04216  1.0000
  I   I247      1.0  0.15821  0.52185  0.39825  1.0000
  I   I248      1.0  0.18362  0.51356  0.71973  1.0000
  I   I249      1.0  0.15205  0.52130  0.07256  1.0000
  I   I250      1.0  0.14236  0.81050  0.28799  1.0000
  I   I251      1.0  0.15568  0.80354  0.56306  1.0000
  I   I252      1.0  0.12584  0.81292  0.94944  1.0000
  I   I253      1.0  0.44543  0.02975  0.31787  1.0000
  I   I254      1.0  0.43218  0.01896  0.64373  1.0000
  I   I255      1.0  0.45730  0.01994  0.96946  1.0000
  I   I256      1.0  0.43489  0.24647  0.37831  1.0000
  I   I257      1.0  0.46149  0.24936  0.70358  1.0000
  I   I258      1.0  0.46586  0.25645  0.03663  1.0000
  I   I259      1.0  0.38345  0.57372  0.31542  1.0000
  I   I260      1.0  0.37858  0.56332  0.65579  1.0000
  I   I261      1.0  0.37730  0.59396  0.97815  1.0000
  I   I262      1.0  0.46416  0.76171  0.17929  1.0000
  I   I263      1.0  0.45756  0.76952  0.55699  1.0000
  I   I264      1.0  0.43891  0.79556  0.87011  1.0000
  I   I265      1.0  0.67700  0.03869  0.39351  1.0000
  I   I266      1.0  0.68906  0.02876  0.66223  1.0000
  I   I267      1.0  0.69582  0.00113  0.00241  1.0000
  I   I268      1.0  0.62473  0.33831  0.33319  1.0000
  I   I269      1.0  0.64153  0.32653  0.65976  1.0000
  I   I270      1.0  0.64585  0.30645  0.97370  1.0000
  I   I271      1.0  0.70969  0.51455  0.17472  1.0000
  I   I272      1.0  0.71965  0.51506  0.48874  1.0000
  I   I273      1.0  0.68611  0.52329  0.87468  1.0000
  I   I274      1.0  0.71337  0.73988  0.29155  1.0000
  I   I275      1.0  0.68310  0.74914  0.60189  1.0000
  I   I276      1.0  0.69650  0.74085  0.95810  1.0000
  I   I277      1.0  0.89546  0.04938  0.25346  1.0000
  I   I278      1.0  0.86253  0.05082  0.56392  1.0000
  I   I279      1.0  0.84518  0.06227  0.90675  1.0000
  I   I280      1.0  0.92911  0.26177  0.22882  1.0000
  I   I281      1.0  0.92296  0.25996  0.55180  1.0000
  I   I282      1.0  0.93037  0.25000  0.88798  1.0000
  I   I283      1.0  0.93233  0.51630  0.27127  1.0000
  I   I284      1.0  0.93920  0.51502  0.62365  1.0000
  I   I285      1.0  0.95383  0.53409  0.96563  1.0000
  I   I286      1.0  0.92137  0.76046  0.34281  1.0000
  I   I287      1.0  0.93390  0.76826  0.70424  1.0000
  I   I288      1.0  0.96336  0.78033  0.02856  1.0000
  I   I289      1.0  0.05366  0.11522  0.03446  1.0000
  I   I290      1.0  0.05687  0.15300  0.35692  1.0000
  I   I291      1.0  0.03594  0.13160  0.70285  1.0000
  I   I292      1.0  0.02709  0.41853  0.22903  1.0000
  I   I293      1.0  0.01586  0.40305  0.51531  1.0000
  I   I294      1.0  0.00891  0.40779  0.87770  1.0000
  I   I295      1.0  0.02823  0.68296  0.22541  1.0000
  I   I296      1.0  0.04389  0.68889  0.58540  1.0000
  I   I297      1.0  0.02017  0.68894  0.90362  1.0000
  I   I298      1.0  0.99086  0.95863  0.11047  1.0000
  I   I299      1.0  0.00545  0.96218  0.45396  1.0000
  I   I300      1.0  0.98898  0.95236  0.78280  1.0000
  I   I301      1.0  0.32390  0.18161  0.12889  1.0000
  I   I302      1.0  0.29744  0.16665  0.45842  1.0000
  I   I303      1.0  0.30204  0.15081  0.81418  1.0000
  I   I304      1.0  0.30256  0.35835  0.19315  1.0000
  I   I305      1.0  0.29313  0.33171  0.52752  1.0000
  I   I306      1.0  0.28690  0.39240  0.89327  1.0000
  I   I307      1.0  0.21932  0.70012  0.18230  1.0000
  I   I308      1.0  0.22247  0.69130  0.49498  1.0000
  I   I309      1.0  0.18136  0.73719  0.77505  1.0000
  I   I310      1.0  0.30109  0.92805  0.05533  1.0000
  I   I311      1.0  0.31156  0.90868  0.38864  1.0000
  I   I312      1.0  0.30296  0.91384  0.70076  1.0000
  I   I313      1.0  0.56009  0.16767  0.17335  1.0000
  I   I314      1.0  0.53832  0.18586  0.54893  1.0000
  I   I315      1.0  0.55666  0.18922  0.85616  1.0000
  I   I316      1.0  0.48158  0.44399  0.16182  1.0000
  I   I317      1.0  0.48347  0.46419  0.52240  1.0000
  I   I318      1.0  0.49133  0.43310  0.81900  1.0000
  I   I319      1.0  0.53735  0.66980  0.00472  1.0000
  I   I320      1.0  0.55629  0.69252  0.37084  1.0000
  I   I321      1.0  0.54875  0.64685  0.67291  1.0000
  I   I322      1.0  0.56141  0.89203  0.13842  1.0000
  I   I323      1.0  0.55516  0.89003  0.45180  1.0000
  I   I324      1.0  0.54793  0.90667  0.78503  1.0000
  I   I325      1.0  0.74533  0.20265  0.11564  1.0000
  I   I326      1.0  0.73855  0.21178  0.37155  1.0000
  I   I327      1.0  0.72903  0.21906  0.73109  1.0000
  I   I328      1.0  0.79223  0.40749  0.05375  1.0000
  I   I329      1.0  0.80035  0.41819  0.38400  1.0000
  I   I330      1.0  0.80027  0.41233  0.71714  1.0000
  I   I331      1.0  0.79091  0.67383  0.11578  1.0000
  I   I332      1.0  0.78516  0.67373  0.46728  1.0000
  I   I333      1.0  0.78782  0.67001  0.77680  1.0000
  I   I334      1.0  0.78602  0.90056  0.19261  1.0000
  I   I335      1.0  0.77640  0.89416  0.53038  1.0000
  I   I336      1.0  0.77926  0.88628  0.87304  1.0000
  I   I337      1.0  0.07555  0.18380  0.93672  1.0000
  I   I338      1.0  0.10353  0.19366  0.25710  1.0000
  I   I339      1.0  0.07118  0.19572  0.61566  1.0000
  I   I340      1.0  0.07185  0.47481  0.12617  1.0000
  I   I341      1.0  0.06958  0.45369  0.45092  1.0000
  I   I342      1.0  0.04346  0.45837  0.76931  1.0000
  I   I343      1.0  0.09315  0.71905  0.14165  1.0000
  I   I344      1.0  0.10163  0.72648  0.49178  1.0000
  I   I345      1.0  0.08601  0.71487  0.80212  1.0000
  I   I346      1.0  0.04019  0.00247  0.01494  1.0000
  I   I347      1.0  0.04565  0.01810  0.36154  1.0000
  I   I348      1.0  0.03785  0.99965  0.67626  1.0000
  I   I349      1.0  0.37592  0.22020  0.04962  1.0000
  I   I350      1.0  0.33225  0.23279  0.38442  1.0000
  I   I351      1.0  0.35291  0.20783  0.73155  1.0000
  I   I352      1.0  0.32396  0.42770  0.09969  1.0000
  I   I353      1.0  0.28232  0.43699  0.49988  1.0000
  I   I354      1.0  0.31589  0.44941  0.78141  1.0000
  I   I355      1.0  0.23951  0.77709  0.07472  1.0000
  I   I356      1.0  0.24459  0.76340  0.42965  1.0000
  I   I357      1.0  0.26060  0.76585  0.71432  1.0000
  I   I358      1.0  0.34539  0.98755  0.00080  1.0000
  I   I359      1.0  0.36277  0.95807  0.28851  1.0000
  I   I360      1.0  0.33113  0.97346  0.57154  1.0000
  I   I361      1.0  0.61693  0.20802  0.08083  1.0000
  I   I362      1.0  0.57527  0.23712  0.43278  1.0000
  I   I363      1.0  0.61523  0.22274  0.77482  1.0000
  I   I364      1.0  0.51414  0.50882  0.07009  1.0000
  I   I365      1.0  0.51154  0.52759  0.40333  1.0000
  I   I366      1.0  0.52053  0.51156  0.74455  1.0000
  I   I367      1.0  0.57746  0.72233  0.90583  1.0000
  I   I368      1.0  0.60541  0.72664  0.25871  1.0000
  I   I369      1.0  0.59482  0.70368  0.59332  1.0000
  I   I370      1.0  0.58758  0.94830  0.02261  1.0000
  I   I371      1.0  0.59416  0.94120  0.34624  1.0000
  I   I372      1.0  0.60478  0.94611  0.69117  1.0000
  I   I373      1.0  0.76577  0.25960  0.00001  1.0000
  I   I374      1.0  0.81037  0.24580  0.30724  1.0000
  I   I375      1.0  0.80167  0.24946  0.64397  1.0000
  I   I376      1.0  0.85160  0.44973  0.96629  1.0000
  I   I377      1.0  0.85906  0.45908  0.28436  1.0000
  I   I378      1.0  0.86482  0.46014  0.66365  1.0000
  I   I379      1.0  0.85083  0.72737  0.05035  1.0000
  I   I380      1.0  0.84092  0.71515  0.36810  1.0000
  I   I381      1.0  0.84366  0.71780  0.69186  1.0000
  I   I382      1.0  0.81466  0.96597  0.08909  1.0000
  I   I383      1.0  0.81393  0.95605  0.43742  1.0000
  I   I384      1.0  0.79376  0.96204  0.78429  1.0000
