data_image0
_chemical_formula_structural       Ti96I384
_chemical_formula_sum              "Ti96 I384"
_cell_length_a       77.3808
_cell_length_b       77.5436
_cell_length_c       37.904
_cell_angle_alpha    88.7757
_cell_angle_beta     88.7757
_cell_angle_gamma    62.1586

_space_group_name_H-M_alt    "P 1"
_space_group_IT_number       1

loop_
  _space_group_symop_operation_xyz
  'x, y, z'

loop_
  _atom_site_type_symbol
  _atom_site_label
  _atom_site_symmetry_multiplicity
  _atom_site_fract_x
  _atom_site_fract_y
  _atom_site_fract_z
  _atom_site_occupancy
  Ti  Ti1       1.0  0.88322  0.72248  0.20562  1.0000
  Ti  Ti2       1.0  0.52458  0.82991  0.58473  1.0000
  Ti  Ti3       1.0  0.06257  0.14793  0.49397  1.0000
  Ti  Ti4       1.0  0.26006  0.11859  0.95432  1.0000
  Ti  Ti5       1.0  0.55760  0.06635  0.46754  1.0000
  Ti  Ti6       1.0  0.61868  0.65244  0.27894  1.0000
  Ti  Ti7       1.0  0.71042  0.88110  0.34919  1.0000
  Ti  Ti8       1.0  0.94385  0.18628  0.89958  1.0000
  Ti  Ti9       1.0  0.09654  0.25023  0.76700  1.0000
  Ti  Ti10      1.0  0.76513  0.57232  0.36291  1.0000
  Ti  Ti11      1.0  0.96775  0.01283  0.17086  1.0000
  Ti  Ti12      1.0  0.36641  0.00116  0.94025  1.0000
  Ti  Ti13      1.0  0.85244  0.59904  0.77755  1.0000
  Ti  Ti14      1.0  0.26226  0.09820  0.87348  1.0000
  Ti  Ti15      1.0  0.94665  0.19014  0.43092  1.0000
  Ti  Ti16      1.0  0.07940  0.07259  0.00582  1.0000
  Ti  Ti17      1.0  0.33033  0.24500  0.16725  1.0000
  Ti  Ti18      1.0  0.71811  0.31233  0.00130  1.0000
  Ti  Ti19      1.0  0.42574  0.21091  0.55644  1.0000
  Ti  Ti20      1.0  0.10702  0.58589  0.58778  1.0000
  Ti  Ti21      1.0  0.86648  0.21775  0.94141  1.0000
  Ti  Ti22      1.0  0.52251  0.54326  0.39229  1.0000
  Ti  Ti23      1.0  0.24789  0.42014  0.70905  1.0000
  Ti  Ti24      1.0  0.40941  0.30988  0.51596  1.0000
  Ti  Ti25      1.0  0.72862  0.33222  0.26270  1.0000
  Ti  Ti26      1.0  0.14465  0.74998  0.28782  1.0000
  Ti  Ti27      1.0  0.79408  0.70714  0.64023  1.0000
  Ti  Ti28      1.0  0.34632  0.93099  0.22808  1.0000
  Ti  Ti29      1.0  0.02805  0.97033  0.69565  1.0000
  Ti  Ti30      1.0  0.18673  0.51174  0.13633  1.0000
  Ti  Ti31      1.0  0.84968  0.12338  0.36658  1.0000
  Ti  Ti32      1.0  0.46493  0.71171  0.44884  1.0000
  Ti  Ti33      1.0  0.56166  0.26497  0.20729  1.0000
  Ti  Ti34      1.0  0.52688  0.39026  0.95643  1.0000
  Ti  Ti35      1.0  0.66916  0.96640  0.76930  1.0000
  Ti  Ti36      1.0  0.44503  0.19481  0.26967  1.0000
  Ti  Ti37      1.0  0.35642  0.24569  0.81603  1.0000
  Ti  Ti38      1.0  0.41868  0.40778  0.82614  1.0000
  Ti  Ti39      1.0  0.81687  0.52834  0.40317  1.0000
  Ti  Ti40      1.0  0.70070  0.53848  0.75941  1.0000
  Ti  Ti41      1.0  0.17058  0.62287  0.77876  1.0000
  Ti  Ti42      1.0  0.90447  0.64072  0.48286  1.0000
  Ti  Ti43      1.0  0.22797  0.89537  0.27912  1.0000
  Ti  Ti44      1.0  0.99367  0.29309  0.83317  1.0000
  Ti  Ti45      1.0  0.82302  0.48457  0.21574  1.0000
  Ti  Ti46      1.0  0.84743  0.32101  0.80731  1.0000
  Ti  Ti47      1.0  0.77832  0.17542  0.82727  1.0000
  Ti  Ti48      1.0  0.83395  0.87613  0.15406  1.0000
  Ti  Ti49      1.0  0.26744  0.89986  0.31671  1.0000
  Ti  Ti50      1.0  0.08016  0.55019  0.39125  1.0000
  Ti  Ti51      1.0  0.57088  0.80805  0.64233  1.0000
  Ti  Ti52      1.0  0.44386  0.61608  0.53605  1.0000
  Ti  Ti53      1.0  0.26305  0.72617  0.61269  1.0000
  Ti  Ti54      1.0  0.35343  0.76195  0.76633  1.0000
  Ti  Ti55      1.0  0.55506  0.61749  0.60008  1.0000
  Ti  Ti56      1.0  0.71673  0.02323  0.69493  1.0000
  Ti  Ti57      1.0  0.13566  0.23638  0.79435  1.0000
  Ti  Ti58      1.0  0.37814  0.23730  0.11612  1.0000
  Ti  Ti59      1.0  0.11761  0.01874  0.02605  1.0000
  Ti  Ti60      1.0  0.95646  0.21605  0.14446  1.0000
  Ti  Ti61      1.0  0.51478  0.18085  0.08113  1.0000
  Ti  Ti62      1.0  0.81054  0.64375  0.85415  1.0000
  Ti  Ti63      1.0  0.11523  0.68085  0.50799  1.0000
  Ti  Ti64      1.0  0.69192  0.35312  0.98079  1.0000
  Ti  Ti65      1.0  0.94144  0.56102  0.91939  1.0000
  Ti  Ti66      1.0  0.31747  0.97974  0.23033  1.0000
  Ti  Ti67      1.0  0.24832  0.57851  0.93290  1.0000
  Ti  Ti68      1.0  0.79683  0.36200  0.75242  1.0000
  Ti  Ti69      1.0  0.17500  0.69294  0.28575  1.0000
  Ti  Ti70      1.0  0.24740  0.96606  0.46966  1.0000
  Ti  Ti71      1.0  0.26943  0.68823  0.16213  1.0000
  Ti  Ti72      1.0  0.83746  0.13793  0.80396  1.0000
  Ti  Ti73      1.0  0.62747  0.33908  0.39504  1.0000
  Ti  Ti74      1.0  0.76796  0.27058  0.26902  1.0000
  Ti  Ti75      1.0  0.80303  0.66940  0.26693  1.0000
  Ti  Ti76      1.0  0.82794  0.04149  0.27021  1.0000
  Ti  Ti77      1.0  0.91235  0.16900  0.43581  1.0000
  Ti  Ti78      1.0  0.97737  0.01295  0.63548  1.0000
  Ti  Ti79      1.0  0.47787  0.92652  0.41219  1.0000
  Ti  Ti80      1.0  0.78885  0.62055  0.58283  1.0000
  Ti  Ti81      1.0  0.27352  0.36645  0.74597  1.0000
  Ti  Ti82      1.0  0.71149  0.46163  0.91349  1.0000
  Ti  Ti83      1.0  0.83952  0.48295  0.10549  1.0000
  Ti  Ti84      1.0  0.46244  0.15429  0.30303  1.0000
  Ti  Ti85      1.0  0.35364  0.20961  0.84025  1.0000
  Ti  Ti86      1.0  0.72746  0.91519  0.32068  1.0000
  Ti  Ti87      1.0  0.62879  0.75054  0.05994  1.0000
  Ti  Ti88      1.0  0.08085  0.00768  0.44630  1.0000
  Ti  Ti89      1.0  0.02999  0.41153  0.77246  1.0000
  Ti  Ti90      1.0  0.33348  0.21323  0.03807  1.0000
  Ti  Ti91      1.0  0.64380  0.36682  0.62164  1.0000
  Ti  Ti92      1.0  0.41649  0.59373  0.05321  1.0000
  Ti  Ti93      1.0  0.31294  0.59051  0.81264  1.0000
  Ti  Ti94      1.0  0.84165  0.89460  0.21145  1.0000
  Ti  Ti95      1.0  0.66842  0.06685  0.48488  1.0000
  Ti  Ti96      1.0  0.53289  0.40596  0.28803  1.0000
  I   I1        1.0  0.83457  0.14662  0.86750  1.0000
  I   I2        1.0  0.58591  0.80651  0.70477  1.0000
  I   I3        1.0  0.29115  0.89454  0.37142  1.0000
  I   I4        1.0  0.23771  0.76395  0.60265  1.0000
  I   I5        1.0  0.59476  0.65945  0.22519  1.0000
  I   I6        1.0  0.31420  0.77879  0.76381  1.0000
  I   I7        1.0  0.88828  0.22148  0.99464  1.0000
  I   I8        1.0  0.72327  0.03281  0.76196  1.0000
  I   I9        1.0  0.10896  0.21686  0.73936  1.0000
  I   I10       1.0  0.69838  0.55357  0.81693  1.0000
  I   I11       1.0  0.95742  0.01486  0.24143  1.0000
  I   I12       1.0  0.57164  0.07111  0.52423  1.0000
  I   I13       1.0  0.77451  0.67476  0.84793  1.0000
  I   I14       1.0  0.11580  0.71070  0.49050  1.0000
  I   I15       1.0  0.91162  0.20358  0.46815  1.0000
  I   I16       1.0  0.66178  0.54868  0.76301  1.0000
  I   I17       1.0  0.31796  0.92021  0.24890  1.0000
  I   I18       1.0  0.71343  0.29924  0.06531  1.0000
  I   I19       1.0  0.10847  0.66765  0.44897  1.0000
  I   I20       1.0  0.93539  0.02865  0.14034  1.0000
  I   I21       1.0  0.97900  0.16939  0.91527  1.0000
  I   I22       1.0  0.25410  0.38079  0.68252  1.0000
  I   I23       1.0  0.09461  0.99447  0.38582  1.0000
  I   I24       1.0  0.26535  0.94358  0.41928  1.0000
  I   I25       1.0  0.73742  0.35257  0.30622  1.0000
  I   I26       1.0  0.82301  0.63134  0.28892  1.0000
  I   I27       1.0  0.70025  0.94374  0.72990  1.0000
  I   I28       1.0  0.37842  0.89419  0.20937  1.0000
  I   I29       1.0  0.04981  0.93321  0.71406  1.0000
  I   I30       1.0  0.15592  0.51119  0.16014  1.0000
  I   I31       1.0  0.81736  0.61868  0.62312  1.0000
  I   I32       1.0  0.25118  0.36344  0.79481  1.0000
  I   I33       1.0  0.47475  0.94335  0.47496  1.0000
  I   I34       1.0  0.65521  0.94380  0.78765  1.0000
  I   I35       1.0  0.46274  0.12123  0.30046  1.0000
  I   I36       1.0  0.52619  0.37292  0.89768  1.0000
  I   I37       1.0  0.32218  0.20228  0.82805  1.0000
  I   I38       1.0  0.83195  0.49390  0.37491  1.0000
  I   I39       1.0  0.36061  0.27575  0.81703  1.0000
  I   I40       1.0  0.01122  0.26851  0.78428  1.0000
  I   I41       1.0  0.04746  0.55672  0.43367  1.0000
  I   I42       1.0  0.72151  0.50091  0.76849  1.0000
  I   I43       1.0  0.41441  0.21155  0.10141  1.0000
  I   I44       1.0  0.00985  0.28468  0.89359  1.0000
  I   I45       1.0  0.83986  0.50573  0.15769  1.0000
  I   I46       1.0  0.64919  0.04960  0.45074  1.0000
  I   I47       1.0  0.76013  0.17830  0.76658  1.0000
  I   I48       1.0  0.87057  0.87223  0.16754  1.0000
  I   I49       1.0  0.23382  0.92775  0.26754  1.0000
  I   I50       1.0  0.51176  0.80801  0.54829  1.0000
  I   I51       1.0  0.52922  0.81397  0.64478  1.0000
  I   I52       1.0  0.78417  0.58987  0.58455  1.0000
  I   I53       1.0  0.29300  0.71779  0.57613  1.0000
  I   I54       1.0  0.35163  0.75382  0.83738  1.0000
  I   I55       1.0  0.73368  0.92672  0.25878  1.0000
  I   I56       1.0  0.93972  0.19803  0.82852  1.0000
  I   I57       1.0  0.70678  0.03771  0.48272  1.0000
  I   I58       1.0  0.79725  0.56665  0.40446  1.0000
  I   I59       1.0  0.10506  0.01207  0.08303  1.0000
  I   I60       1.0  0.98775  0.19488  0.19042  1.0000
  I   I61       1.0  0.83166  0.60300  0.85487  1.0000
  I   I62       1.0  0.83839  0.64562  0.81455  1.0000
  I   I63       1.0  0.11204  0.54885  0.57488  1.0000
  I   I64       1.0  0.08539  0.02916  0.98851  1.0000
  I   I65       1.0  0.97928  0.53697  0.91758  1.0000
  I   I66       1.0  0.36419  0.91160  0.29288  1.0000
  I   I67       1.0  0.38932  0.22787  0.55104  1.0000
  I   I68       1.0  0.09308  0.57713  0.64847  1.0000
  I   I69       1.0  0.13222  0.73893  0.22473  1.0000
  I   I70       1.0  0.21070  0.99266  0.47155  1.0000
  I   I71       1.0  0.22124  0.43816  0.65963  1.0000
  I   I72       1.0  0.80890  0.17611  0.77857  1.0000
  I   I73       1.0  0.77690  0.72075  0.70526  1.0000
  I   I74       1.0  0.11107  0.76969  0.31621  1.0000
  I   I75       1.0  0.14828  0.77773  0.24987  1.0000
  I   I76       1.0  0.93255  0.17671  0.37578  1.0000
  I   I77       1.0  0.95433  0.21450  0.39276  1.0000
  I   I78       1.0  0.82227  0.15119  0.32136  1.0000
  I   I79       1.0  0.54289  0.26776  0.26302  1.0000
  I   I80       1.0  0.88212  0.75414  0.21396  1.0000
  I   I81       1.0  0.48441  0.73093  0.45541  1.0000
  I   I82       1.0  0.67562  0.47310  0.88508  1.0000
  I   I83       1.0  0.82949  0.51056  0.06038  1.0000
  I   I84       1.0  0.49361  0.14679  0.26362  1.0000
  I   I85       1.0  0.38852  0.20579  0.79614  1.0000
  I   I86       1.0  0.33433  0.95427  0.28737  1.0000
  I   I87       1.0  0.78982  0.52429  0.44433  1.0000
  I   I88       1.0  0.74182  0.56165  0.39518  1.0000
  I   I89       1.0  0.55719  0.39618  0.95073  1.0000
  I   I90       1.0  0.09780  0.56443  0.42033  1.0000
  I   I91       1.0  0.65918  0.34008  0.66879  1.0000
  I   I92       1.0  0.43076  0.55674  0.05075  1.0000
  I   I93       1.0  0.95957  0.29505  0.84096  1.0000
  I   I94       1.0  0.83841  0.86281  0.22938  1.0000
  I   I95       1.0  0.87512  0.32547  0.84989  1.0000
  I   I96       1.0  0.56055  0.51985  0.39778  1.0000
  I   I97       1.0  0.06875  0.18141  0.48562  1.0000
  I   I98       1.0  0.84983  0.72307  0.22052  1.0000
  I   I99       1.0  0.58501  0.76789  0.63763  1.0000
  I   I100      1.0  0.28887  0.11211  0.89573  1.0000
  I   I101      1.0  0.10751  0.01658  0.47128  1.0000
  I   I102      1.0  0.56629  0.07782  0.40568  1.0000
  I   I103      1.0  0.68732  0.92711  0.33167  1.0000
  I   I104      1.0  0.53338  0.63524  0.53321  1.0000
  I   I105      1.0  0.12860  0.25396  0.73118  1.0000
  I   I106      1.0  0.33347  0.02016  0.98245  1.0000
  I   I107      1.0  0.74514  0.57650  0.29916  1.0000
  I   I108      1.0  0.34868  0.00125  0.87935  1.0000
  I   I109      1.0  0.96039  0.20018  0.48852  1.0000
  I   I110      1.0  0.89311  0.57783  0.78620  1.0000
  I   I111      1.0  0.07980  0.61846  0.56517  1.0000
  I   I112      1.0  0.69291  0.37887  0.93753  1.0000
  I   I113      1.0  0.94080  0.59103  0.88253  1.0000
  I   I114      1.0  0.30703  0.24934  0.11437  1.0000
  I   I115      1.0  0.24517  0.55365  0.97674  1.0000
  I   I116      1.0  0.24131  0.61299  0.95105  1.0000
  I   I117      1.0  0.78161  0.34717  0.70920  1.0000
  I   I118      1.0  0.50435  0.43202  0.25232  1.0000
  I   I119      1.0  0.28652  0.56407  0.92984  1.0000
  I   I120      1.0  0.76905  0.20871  0.84822  1.0000
  I   I121      1.0  0.63365  0.35674  0.33843  1.0000
  I   I122      1.0  0.71833  0.35792  0.21011  1.0000
  I   I123      1.0  0.80283  0.68547  0.32796  1.0000
  I   I124      1.0  0.22166  0.49131  0.17500  1.0000
  I   I125      1.0  0.79493  0.04603  0.24086  1.0000
  I   I126      1.0  0.93704  0.02804  0.62773  1.0000
  I   I127      1.0  0.53130  0.29079  0.17649  1.0000
  I   I128      1.0  0.25836  0.08664  0.96445  1.0000
  I   I129      1.0  0.30075  0.37421  0.77251  1.0000
  I   I130      1.0  0.46262  0.18949  0.33920  1.0000
  I   I131      1.0  0.71899  0.45311  0.83207  1.0000
  I   I132      1.0  0.68217  0.97116  0.83112  1.0000
  I   I133      1.0  0.84797  0.52565  0.43282  1.0000
  I   I134      1.0  0.41467  0.44384  0.82727  1.0000
  I   I135      1.0  0.30781  0.00157  0.17182  1.0000
  I   I136      1.0  0.92697  0.65463  0.46245  1.0000
  I   I137      1.0  0.46361  0.62510  0.57821  1.0000
  I   I138      1.0  0.05040  0.42971  0.77239  1.0000
  I   I139      1.0  0.61900  0.36096  0.58519  1.0000
  I   I140      1.0  0.44123  0.60548  0.03438  1.0000
  I   I141      1.0  0.32011  0.59124  0.87943  1.0000
  I   I142      1.0  0.84306  0.90084  0.28273  1.0000
  I   I143      1.0  0.06008  0.16247  0.56183  1.0000
  I   I144      1.0  0.51428  0.53538  0.32732  1.0000
  I   I145      1.0  0.90196  0.71057  0.13758  1.0000
  I   I146      1.0  0.55997  0.81473  0.55585  1.0000
  I   I147      1.0  0.02483  0.15605  0.49179  1.0000
  I   I148      1.0  0.46488  0.61349  0.47973  1.0000
  I   I149      1.0  0.51977  0.07921  0.46239  1.0000
  I   I150      1.0  0.61820  0.62357  0.31423  1.0000
  I   I151      1.0  0.58377  0.58014  0.59704  1.0000
  I   I152      1.0  0.86891  0.19238  0.99413  1.0000
  I   I153      1.0  0.06667  0.27181  0.73201  1.0000
  I   I154      1.0  0.24412  0.88472  0.22193  1.0000
  I   I155      1.0  0.00363  0.99969  0.17241  1.0000
  I   I156      1.0  0.91778  0.23298  0.13985  1.0000
  I   I157      1.0  0.88241  0.18530  0.39286  1.0000
  I   I158      1.0  0.13036  0.64968  0.55311  1.0000
  I   I159      1.0  0.50185  0.15479  0.09176  1.0000
  I   I160      1.0  0.67041  0.36626  0.03963  1.0000
  I   I161      1.0  0.35234  0.20582  0.17110  1.0000
  I   I162      1.0  0.68056  0.32210  0.99488  1.0000
  I   I163      1.0  0.42327  0.23481  0.60705  1.0000
  I   I164      1.0  0.77665  0.39613  0.77544  1.0000
  I   I165      1.0  0.93433  0.21857  0.93235  1.0000
  I   I166      1.0  0.55838  0.42020  0.27556  1.0000
  I   I167      1.0  0.26222  0.42875  0.76182  1.0000
  I   I168      1.0  0.38573  0.34354  0.54780  1.0000
  I   I169      1.0  0.76202  0.25057  0.21420  1.0000
  I   I170      1.0  0.74116  0.30086  0.31480  1.0000
  I   I171      1.0  0.83011  0.69074  0.65216  1.0000
  I   I172      1.0  0.84101  0.00964  0.30790  1.0000
  I   I173      1.0  0.98190  0.03473  0.67753  1.0000
  I   I174      1.0  0.20859  0.49239  0.08158  1.0000
  I   I175      1.0  0.87187  0.13594  0.32291  1.0000
  I   I176      1.0  0.48472  0.68355  0.49395  1.0000
  I   I177      1.0  0.49199  0.90430  0.34518  1.0000
  I   I178      1.0  0.70286  0.47934  0.97452  1.0000
  I   I179      1.0  0.86271  0.45090  0.06580  1.0000
  I   I180      1.0  0.41183  0.22869  0.26178  1.0000
  I   I181      1.0  0.32337  0.25294  0.84776  1.0000
  I   I182      1.0  0.68428  0.87934  0.39501  1.0000
  I   I183      1.0  0.62765  0.73237  0.00602  1.0000
  I   I184      1.0  0.04174  0.02384  0.42632  1.0000
  I   I185      1.0  0.99390  0.43615  0.74861  1.0000
  I   I186      1.0  0.91468  0.60340  0.50135  1.0000
  I   I187      1.0  0.38169  0.61343  0.01417  1.0000
  I   I188      1.0  0.98967  0.32735  0.80926  1.0000
  I   I189      1.0  0.66264  0.73713  0.08724  1.0000
  I   I190      1.0  0.88212  0.32152  0.77277  1.0000
  I   I191      1.0  0.32040  0.24004  0.98340  1.0000
  I   I192      1.0  0.09972  0.13302  0.52308  1.0000
  I   I193      1.0  0.01038  0.97923  0.75697  1.0000
  I   I194      1.0  0.09934  0.51165  0.39231  1.0000
  I   I195      1.0  0.07507  0.13891  0.42879  1.0000
  I   I196      1.0  0.22756  0.14199  0.99123  1.0000
  I   I197      1.0  0.36038  0.22952  0.06397  1.0000
  I   I198      1.0  0.65484  0.63224  0.26573  1.0000
  I   I199      1.0  0.43357  0.73116  0.48881  1.0000
  I   I200      1.0  0.74529  0.99652  0.66094  1.0000
  I   I201      1.0  0.10775  0.22158  0.82962  1.0000
  I   I202      1.0  0.10238  0.07980  0.04893  1.0000
  I   I203      1.0  0.15497  0.71961  0.33655  1.0000
  I   I204      1.0  0.39589  0.00830  0.93065  1.0000
  I   I205      1.0  0.81539  0.62524  0.76063  1.0000
  I   I206      1.0  0.28541  0.11213  0.00305  1.0000
  I   I207      1.0  0.89613  0.15727  0.47804  1.0000
  I   I208      1.0  0.11633  0.04665  0.96832  1.0000
  I   I209      1.0  0.31839  0.25971  0.22866  1.0000
  I   I210      1.0  0.51632  0.89765  0.41842  1.0000
  I   I211      1.0  0.25660  0.99059  0.50587  1.0000
  I   I212      1.0  0.10285  0.69887  0.57424  1.0000
  I   I213      1.0  0.18472  0.67578  0.22463  1.0000
  I   I214      1.0  0.51741  0.57582  0.36995  1.0000
  I   I215      1.0  0.27144  0.42307  0.65263  1.0000
  I   I216      1.0  0.29423  0.63186  0.80976  1.0000
  I   I217      1.0  0.69557  0.33374  0.26789  1.0000
  I   I218      1.0  0.77164  0.67813  0.23017  1.0000
  I   I219      1.0  0.64557  0.34649  0.44378  1.0000
  I   I220      1.0  0.98008  0.16228  0.42053  1.0000
  I   I221      1.0  0.02257  0.97651  0.62851  1.0000
  I   I222      1.0  0.85724  0.02802  0.22155  1.0000
  I   I223      1.0  0.87837  0.11879  0.41046  1.0000
  I   I224      1.0  0.46410  0.69751  0.39032  1.0000
  I   I225      1.0  0.58671  0.27360  0.23930  1.0000
  I   I226      1.0  0.74767  0.45878  0.89341  1.0000
  I   I227      1.0  0.64851  0.99404  0.72513  1.0000
  I   I228      1.0  0.47082  0.20323  0.23499  1.0000
  I   I229      1.0  0.38399  0.22677  0.18055  1.0000
  I   I230      1.0  0.45069  0.38600  0.86046  1.0000
  I   I231      1.0  0.79452  0.53739  0.33533  1.0000
  I   I232      1.0  0.29933  0.06606  0.87619  1.0000
  I   I233      1.0  0.19791  0.63052  0.79718  1.0000
  I   I234      1.0  0.35421  0.19227  0.98278  1.0000
  I   I235      1.0  0.20796  0.87461  0.28367  1.0000
  I   I236      1.0  0.30591  0.56285  0.80107  1.0000
  I   I237      1.0  0.66850  0.36983  0.57837  1.0000
  I   I238      1.0  0.66003  0.09321  0.53418  1.0000
  I   I239      1.0  0.53210  0.38423  0.23677  1.0000
  I   I240      1.0  0.82870  0.90035  0.09824  1.0000
  I   I241      1.0  0.90833  0.69813  0.25070  1.0000
  I   I242      1.0  0.48904  0.86050  0.58562  1.0000
  I   I243      1.0  0.85639  0.28751  0.82368  1.0000
  I   I244      1.0  0.08078  0.98074  0.48699  1.0000
  I   I245      1.0  0.27456  0.71003  0.68262  1.0000
  I   I246      1.0  0.59546  0.68420  0.31181  1.0000
  I   I247      1.0  0.70741  0.89178  0.27557  1.0000
  I   I248      1.0  0.83255  0.24726  0.95000  1.0000
  I   I249      1.0  0.09963  0.28093  0.80941  1.0000
  I   I250      1.0  0.04476  0.08280  0.03424  1.0000
  I   I251      1.0  0.97376  0.97787  0.16296  1.0000
  I   I252      1.0  0.96958  0.19506  0.08737  1.0000
  I   I253      1.0  0.84856  0.56923  0.76287  1.0000
  I   I254      1.0  0.25955  0.10113  0.80421  1.0000
  I   I255      1.0  0.53202  0.16482  0.01500  1.0000
  I   I256      1.0  0.94006  0.56967  0.98623  1.0000
  I   I257      1.0  0.36938  0.22924  0.88721  1.0000
  I   I258      1.0  0.74604  0.28135  0.97994  1.0000
  I   I259      1.0  0.23435  0.57922  0.87420  1.0000
  I   I260      1.0  0.81264  0.37056  0.70304  1.0000
  I   I261      1.0  0.87836  0.21909  0.87481  1.0000
  I   I262      1.0  0.52635  0.54099  0.45990  1.0000
  I   I263      1.0  0.28018  0.65697  0.20866  1.0000
  I   I264      1.0  0.43727  0.18154  0.21221  1.0000
  I   I265      1.0  0.76190  0.29737  0.22129  1.0000
  I   I266      1.0  0.18168  0.72304  0.25055  1.0000
  I   I267      1.0  0.63917  0.30178  0.38264  1.0000
  I   I268      1.0  0.36143  0.95969  0.21518  1.0000
  I   I269      1.0  0.98966  0.02162  0.57524  1.0000
  I   I270      1.0  0.28385  0.98883  0.25151  1.0000
  I   I271      1.0  0.82334  0.11582  0.39300  1.0000
  I   I272      1.0  0.21787  0.42413  0.74509  1.0000
  I   I273      1.0  0.57608  0.23021  0.18361  1.0000
  I   I274      1.0  0.16576  0.63736  0.71643  1.0000
  I   I275      1.0  0.76436  0.69917  0.62456  1.0000
  I   I276      1.0  0.42473  0.18026  0.31607  1.0000
  I   I277      1.0  0.70951  0.42979  0.92627  1.0000
  I   I278      1.0  0.41924  0.37496  0.80213  1.0000
  I   I279      1.0  0.79139  0.51699  0.22366  1.0000
  I   I280      1.0  0.43535  0.58762  0.55065  1.0000
  I   I281      1.0  0.16644  0.59323  0.76030  1.0000
  I   I282      1.0  0.87591  0.65941  0.43903  1.0000
  I   I283      1.0  0.24866  0.89015  0.36135  1.0000
  I   I284      1.0  0.42329  0.32089  0.46981  1.0000
  I   I285      1.0  0.61931  0.78619  0.06314  1.0000
  I   I286      1.0  0.66528  0.09564  0.43757  1.0000
  I   I287      1.0  0.83834  0.14166  0.73349  1.0000
  I   I288      1.0  0.80209  0.90374  0.19562  1.0000
  I   I289      1.0  0.28654  0.86362  0.28879  1.0000
  I   I290      1.0  0.34518  0.18171  0.07469  1.0000
  I   I291      1.0  0.60783  0.80005  0.61747  1.0000
  I   I292      1.0  0.41033  0.64511  0.51750  1.0000
  I   I293      1.0  0.24694  0.70362  0.61790  1.0000
  I   I294      1.0  0.36385  0.77308  0.70989  1.0000
  I   I295      1.0  0.72086  0.84672  0.33423  1.0000
  I   I296      1.0  0.68594  0.01951  0.69805  1.0000
  I   I297      1.0  0.15806  0.23923  0.83844  1.0000
  I   I298      1.0  0.38551  0.26754  0.08393  1.0000
  I   I299      1.0  0.06640  0.10289  0.96210  1.0000
  I   I300      1.0  0.34375  0.58601  0.77655  1.0000
  I   I301      1.0  0.51377  0.20633  0.13037  1.0000
  I   I302      1.0  0.86682  0.60619  0.71842  1.0000
  I   I303      1.0  0.71635  0.55518  0.71839  1.0000
  I   I304      1.0  0.73027  0.34094  0.01131  1.0000
  I   I305      1.0  0.15249  0.01173  0.06272  1.0000
  I   I306      1.0  0.73409  0.88761  0.39157  1.0000
  I   I307      1.0  0.44200  0.17915  0.59444  1.0000
  I   I308      1.0  0.13461  0.58382  0.62763  1.0000
  I   I309      1.0  0.92114  0.17109  0.92132  1.0000
  I   I310      1.0  0.19003  0.92606  0.30374  1.0000
  I   I311      1.0  0.29034  0.70051  0.18727  1.0000
  I   I312      1.0  0.80105  0.13570  0.81356  1.0000
  I   I313      1.0  0.59249  0.35706  0.42049  1.0000
  I   I314      1.0  0.80364  0.25214  0.30012  1.0000
  I   I315      1.0  0.82523  0.67514  0.22301  1.0000
  I   I316      1.0  0.83089  0.06520  0.31573  1.0000
  I   I317      1.0  0.31968  0.94903  0.18112  1.0000
  I   I318      1.0  0.05179  0.98473  0.69546  1.0000
  I   I319      1.0  0.46350  0.95599  0.36670  1.0000
  I   I320      1.0  0.24047  0.13744  0.88780  1.0000
  I   I321      1.0  0.53649  0.62170  0.65576  1.0000
  I   I322      1.0  0.49232  0.42702  0.95716  1.0000
  I   I323      1.0  0.84526  0.47995  0.27245  1.0000
  I   I324      1.0  0.45972  0.15483  0.37797  1.0000
  I   I325      1.0  0.37317  0.18481  0.89034  1.0000
  I   I326      1.0  0.75348  0.87736  0.30761  1.0000
  I   I327      1.0  0.81003  0.46261  0.23680  1.0000
  I   I328      1.0  0.74856  0.61765  0.35876  1.0000
  I   I329      1.0  0.02399  0.40771  0.83589  1.0000
  I   I330      1.0  0.29969  0.21622  0.02575  1.0000
  I   I331      1.0  0.60387  0.74823  0.09671  1.0000
  I   I332      1.0  0.34248  0.26875  0.12857  1.0000
  I   I333      1.0  0.53884  0.36231  0.00601  1.0000
  I   I334      1.0  0.83261  0.92897  0.18463  1.0000
  I   I335      1.0  0.80621  0.34861  0.82021  1.0000
  I   I336      1.0  0.52165  0.41976  0.35214  1.0000
  I   I337      1.0  0.27502  0.92778  0.29978  1.0000
  I   I338      1.0  0.09502  0.54755  0.32033  1.0000
  I   I339      1.0  0.55239  0.84616  0.62606  1.0000
  I   I340      1.0  0.75573  0.65484  0.58659  1.0000
  I   I341      1.0  0.58197  0.02962  0.46449  1.0000
  I   I342      1.0  0.36287  0.72592  0.74930  1.0000
  I   I343      1.0  0.57285  0.64148  0.61323  1.0000
  I   I344      1.0  0.70446  0.05885  0.67443  1.0000
  I   I345      1.0  0.16085  0.20625  0.76258  1.0000
  I   I346      1.0  0.23582  0.94470  0.51091  1.0000
  I   I347      1.0  0.13983  0.98490  0.99595  1.0000
  I   I348      1.0  0.96495  0.24194  0.12212  1.0000
  I   I349      1.0  0.48782  0.20337  0.03962  1.0000
  I   I350      1.0  0.82481  0.64071  0.92045  1.0000
  I   I351      1.0  0.23679  0.08467  0.87814  1.0000
  I   I352      1.0  0.72286  0.32591  0.93271  1.0000
  I   I353      1.0  0.90768  0.56492  0.90806  1.0000
  I   I354      1.0  0.72805  0.94474  0.34699  1.0000
  I   I355      1.0  0.43414  0.22304  0.49598  1.0000
  I   I356      1.0  0.83101  0.32224  0.74627  1.0000
  I   I357      1.0  0.20290  0.67425  0.33089  1.0000
  I   I358      1.0  0.43263  0.30200  0.56689  1.0000
  I   I359      1.0  0.24027  0.71986  0.13149  1.0000
  I   I360      1.0  0.85624  0.10309  0.81081  1.0000
  I   I361      1.0  0.79188  0.73100  0.58727  1.0000
  I   I362      1.0  0.75889  0.24343  0.30068  1.0000
  I   I363      1.0  0.15006  0.67724  0.29851  1.0000
  I   I364      1.0  0.18428  0.54358  0.15043  1.0000
  I   I365      1.0  0.94284  0.14679  0.48238  1.0000
  I   I366      1.0  0.98341  0.97833  0.66864  1.0000
  I   I367      1.0  0.45051  0.91243  0.42825  1.0000
  I   I368      1.0  0.80456  0.61615  0.52083  1.0000
  I   I369      1.0  0.29003  0.33089  0.71629  1.0000
  I   I370      1.0  0.14890  0.63747  0.83792  1.0000
  I   I371      1.0  0.85466  0.45443  0.16924  1.0000
  I   I372      1.0  0.40220  0.27998  0.49163  1.0000
  I   I373      1.0  0.33519  0.22922  0.76887  1.0000
  I   I374      1.0  0.38998  0.41081  0.87230  1.0000
  I   I375      1.0  0.80414  0.48778  0.13087  1.0000
  I   I376      1.0  0.28508  0.67053  0.10401  1.0000
  I   I377      1.0  0.04735  0.38810  0.71041  1.0000
  I   I378      1.0  0.89345  0.66412  0.53226  1.0000
  I   I379      1.0  0.62932  0.39110  0.67664  1.0000
  I   I380      1.0  0.40519  0.60560  0.11821  1.0000
  I   I381      1.0  0.38029  0.96457  0.94982  1.0000
  I   I382      1.0  0.83105  0.84685  0.13424  1.0000
  I   I383      1.0  0.67432  0.03764  0.53433  1.0000
  I   I384      1.0  0.75435  0.17537  0.88244  1.0000
