data_image0
_chemical_formula_structural       Ti96I384
_chemical_formula_sum              "Ti96 I384"
_cell_length_a       45.2195
_cell_length_b       44.8985
_cell_length_c       22.7915
_cell_angle_alpha    88.7757
_cell_angle_beta     88.7757
_cell_angle_gamma    62.1586

_space_group_name_H-M_alt    "P 1"
_space_group_IT_number       1

loop_
  _space_group_symop_operation_xyz
  'x, y, z'

loop_
  _atom_site_type_symbol
  _atom_site_label
  _atom_site_symmetry_multiplicity
  _atom_site_fract_x
  _atom_site_fract_y
  _atom_site_fract_z
  _atom_site_occupancy
  Ti  Ti1       1.0  0.30667  0.08864  0.72746  1.0000
  Ti  Ti2       1.0  0.20362  0.02537  0.16745  1.0000
  Ti  Ti3       1.0  0.30765  0.06124  0.38445  1.0000
  Ti  Ti4       1.0  0.23967  0.30056  0.22537  1.0000
  Ti  Ti5       1.0  0.20676  0.30989  0.57293  1.0000
  Ti  Ti6       1.0  0.21899  0.29663  0.91688  1.0000
  Ti  Ti7       1.0  0.09137  0.56023  0.48501  1.0000
  Ti  Ti8       1.0  0.90342  0.77384  0.93856  1.0000
  Ti  Ti9       1.0  0.04897  0.68846  0.21225  1.0000
  Ti  Ti10      1.0  0.00214  0.91689  0.23890  1.0000
  Ti  Ti11      1.0  0.12108  0.87707  0.62419  1.0000
  Ti  Ti12      1.0  0.13435  0.82660  0.96291  1.0000
  Ti  Ti13      1.0  0.46510  0.13294  0.27666  1.0000
  Ti  Ti14      1.0  0.47770  0.13998  0.60832  1.0000
  Ti  Ti15      1.0  0.46535  0.13015  0.95523  1.0000
  Ti  Ti16      1.0  0.35245  0.41864  0.76230  1.0000
  Ti  Ti17      1.0  0.24828  0.46459  0.05112  1.0000
  Ti  Ti18      1.0  0.37609  0.39775  0.41886  1.0000
  Ti  Ti19      1.0  0.30840  0.82379  0.34652  1.0000
  Ti  Ti20      1.0  0.38232  0.65910  0.95644  1.0000
  Ti  Ti21      1.0  0.27853  0.67283  0.34629  1.0000
  Ti  Ti22      1.0  0.28214  0.91956  0.73067  1.0000
  Ti  Ti23      1.0  0.46028  0.87325  0.07282  1.0000
  Ti  Ti24      1.0  0.45555  0.83237  0.57272  1.0000
  Ti  Ti25      1.0  0.66540  0.19366  0.47252  1.0000
  Ti  Ti26      1.0  0.67453  0.17069  0.80197  1.0000
  Ti  Ti27      1.0  0.65007  0.17852  0.13291  1.0000
  Ti  Ti28      1.0  0.60995  0.38680  0.12443  1.0000
  Ti  Ti29      1.0  0.69584  0.35640  0.55210  1.0000
  Ti  Ti30      1.0  0.64453  0.37687  0.82391  1.0000
  Ti  Ti31      1.0  0.59429  0.64976  0.23492  1.0000
  Ti  Ti32      1.0  0.74084  0.51090  0.62706  1.0000
  Ti  Ti33      1.0  0.69587  0.53934  0.95814  1.0000
  Ti  Ti34      1.0  0.73013  0.75579  0.22458  1.0000
  Ti  Ti35      1.0  0.71224  0.78225  0.54613  1.0000
  Ti  Ti36      1.0  0.72199  0.77700  0.86037  1.0000
  Ti  Ti37      1.0  0.85362  0.12872  0.17155  1.0000
  Ti  Ti38      1.0  0.87364  0.11614  0.50129  1.0000
  Ti  Ti39      1.0  0.86248  0.12270  0.81568  1.0000
  Ti  Ti40      1.0  0.00860  0.25745  0.02872  1.0000
  Ti  Ti41      1.0  0.02149  0.20193  0.37589  1.0000
  Ti  Ti42      1.0  0.09142  0.13350  0.69560  1.0000
  Ti  Ti43      1.0  0.93991  0.49564  0.29683  1.0000
  Ti  Ti44      1.0  0.93657  0.49140  0.64218  1.0000
  Ti  Ti45      1.0  0.90342  0.52558  0.94832  1.0000
  Ti  Ti46      1.0  0.75271  0.91671  0.24615  1.0000
  Ti  Ti47      1.0  0.72896  0.94111  0.54017  1.0000
  Ti  Ti48      1.0  0.75359  0.94020  0.85890  1.0000
  Ti  Ti49      1.0  0.28903  0.11117  0.55380  1.0000
  Ti  Ti50      1.0  0.12527  0.03367  0.08698  1.0000
  Ti  Ti51      1.0  0.21134  0.07763  0.31161  1.0000
  Ti  Ti52      1.0  0.17022  0.34057  0.08802  1.0000
  Ti  Ti53      1.0  0.12376  0.36189  0.44493  1.0000
  Ti  Ti54      1.0  0.16939  0.34111  0.73981  1.0000
  Ti  Ti55      1.0  0.04665  0.65575  0.40515  1.0000
  Ti  Ti56      1.0  0.91786  0.80100  0.77062  1.0000
  Ti  Ti57      1.0  0.95015  0.76183  0.14912  1.0000
  Ti  Ti58      1.0  0.03089  0.88568  0.05511  1.0000
  Ti  Ti59      1.0  0.91147  0.94989  0.32249  1.0000
  Ti  Ti60      1.0  0.10817  0.85417  0.78623  1.0000
  Ti  Ti61      1.0  0.42769  0.19082  0.10133  1.0000
  Ti  Ti62      1.0  0.42246  0.20420  0.43430  1.0000
  Ti  Ti63      1.0  0.44456  0.18755  0.80192  1.0000
  Ti  Ti64      1.0  0.31889  0.41874  0.58248  1.0000
  Ti  Ti65      1.0  0.25223  0.47579  0.86072  1.0000
  Ti  Ti66      1.0  0.20398  0.47930  0.19866  1.0000
  Ti  Ti67      1.0  0.29905  0.75802  0.30690  1.0000
  Ti  Ti68      1.0  0.30929  0.71969  0.90975  1.0000
  Ti  Ti69      1.0  0.28323  0.59821  0.24892  1.0000
  Ti  Ti70      1.0  0.36973  0.87945  0.65494  1.0000
  Ti  Ti71      1.0  0.47047  0.84115  0.91775  1.0000
  Ti  Ti72      1.0  0.45777  0.89845  0.23631  1.0000
  Ti  Ti73      1.0  0.60834  0.20054  0.30966  1.0000
  Ti  Ti74      1.0  0.61276  0.20949  0.64102  1.0000
  Ti  Ti75      1.0  0.60086  0.20665  0.96031  1.0000
  Ti  Ti76      1.0  0.56547  0.40364  0.94885  1.0000
  Ti  Ti77      1.0  0.52215  0.43138  0.22593  1.0000
  Ti  Ti78      1.0  0.60670  0.38951  0.63074  1.0000
  Ti  Ti79      1.0  0.59874  0.63269  0.03935  1.0000
  Ti  Ti80      1.0  0.53659  0.64981  0.37920  1.0000
  Ti  Ti81      1.0  0.68286  0.53911  0.76766  1.0000
  Ti  Ti82      1.0  0.67596  0.79488  0.05091  1.0000
  Ti  Ti83      1.0  0.65910  0.79589  0.37222  1.0000
  Ti  Ti84      1.0  0.65863  0.79478  0.72372  1.0000
  Ti  Ti85      1.0  0.82791  0.19240  0.97874  1.0000
  Ti  Ti86      1.0  0.84865  0.17664  0.34031  1.0000
  Ti  Ti87      1.0  0.84614  0.18419  0.65178  1.0000
  Ti  Ti88      1.0  0.97072  0.29881  0.86600  1.0000
  Ti  Ti89      1.0  0.97366  0.27545  0.26993  1.0000
  Ti  Ti90      1.0  0.03424  0.19902  0.56978  1.0000
  Ti  Ti91      1.0  0.87755  0.60879  0.04762  1.0000
  Ti  Ti92      1.0  0.89683  0.51165  0.46527  1.0000
  Ti  Ti93      1.0  0.87893  0.56982  0.76261  1.0000
  Ti  Ti94      1.0  0.70079  0.98498  0.03076  1.0000
  Ti  Ti95      1.0  0.67017  0.98140  0.35412  1.0000
  Ti  Ti96      1.0  0.68514  0.97880  0.70565  1.0000
  I   I1        1.0  0.13473  0.98313  0.01315  1.0000
  I   I2        1.0  0.19116  0.03248  0.28569  1.0000
  I   I3        1.0  0.27898  0.05798  0.50060  1.0000
  I   I4        1.0  0.12974  0.32768  0.34709  1.0000
  I   I5        1.0  0.16189  0.30124  0.66522  1.0000
  I   I6        1.0  0.15754  0.31219  0.99737  1.0000
  I   I7        1.0  0.91762  0.76153  0.68309  1.0000
  I   I8        1.0  0.85166  0.79399  0.00637  1.0000
  I   I9        1.0  0.00268  0.67928  0.30698  1.0000
  I   I10       1.0  0.93766  0.91937  0.21178  1.0000
  I   I11       1.0  0.13506  0.81359  0.68257  1.0000
  I   I12       1.0  0.06069  0.82223  0.01057  1.0000
  I   I13       1.0  0.40308  0.18634  0.33099  1.0000
  I   I14       1.0  0.42683  0.16112  0.69791  1.0000
  I   I15       1.0  0.40193  0.18381  0.99691  1.0000
  I   I16       1.0  0.28609  0.42376  0.78103  1.0000
  I   I17       1.0  0.18142  0.47801  0.06493  1.0000
  I   I18       1.0  0.35262  0.36032  0.48521  1.0000
  I   I19       1.0  0.34586  0.64203  0.03507  1.0000
  I   I20       1.0  0.23260  0.60293  0.18864  1.0000
  I   I21       1.0  0.24645  0.74342  0.33667  1.0000
  I   I22       1.0  0.43786  0.81019  0.88765  1.0000
  I   I23       1.0  0.40514  0.87939  0.00611  1.0000
  I   I24       1.0  0.42457  0.81070  0.69147  1.0000
  I   I25       1.0  0.62785  0.16746  0.53429  1.0000
  I   I26       1.0  0.61567  0.16683  0.85775  1.0000
  I   I27       1.0  0.59332  0.17889  0.20560  1.0000
  I   I28       1.0  0.55044  0.37581  0.15100  1.0000
  I   I29       1.0  0.63891  0.34954  0.53180  1.0000
  I   I30       1.0  0.58800  0.36090  0.84543  1.0000
  I   I31       1.0  0.53366  0.63988  0.25154  1.0000
  I   I32       1.0  0.68062  0.49949  0.68695  1.0000
  I   I33       1.0  0.61478  0.57218  0.97587  1.0000
  I   I34       1.0  0.66236  0.76226  0.27789  1.0000
  I   I35       1.0  0.67698  0.75828  0.62465  1.0000
  I   I36       1.0  0.69493  0.75207  0.95887  1.0000
  I   I37       1.0  0.80835  0.18237  0.24740  1.0000
  I   I38       1.0  0.80946  0.17633  0.56522  1.0000
  I   I39       1.0  0.80593  0.18148  0.87235  1.0000
  I   I40       1.0  0.96790  0.28126  0.14714  1.0000
  I   I41       1.0  0.00788  0.16908  0.47958  1.0000
  I   I42       1.0  0.96687  0.26119  0.78535  1.0000
  I   I43       1.0  0.89860  0.47377  0.35816  1.0000
  I   I44       1.0  0.86412  0.53246  0.67029  1.0000
  I   I45       1.0  0.83921  0.57889  0.00690  1.0000
  I   I46       1.0  0.68459  0.93795  0.26036  1.0000
  I   I47       1.0  0.66431  0.95107  0.60927  1.0000
  I   I48       1.0  0.70313  0.93613  0.94499  1.0000
  I   I49       1.0  0.30792  0.14713  0.62396  1.0000
  I   I50       1.0  0.13062  0.07880  0.15846  1.0000
  I   I51       1.0  0.24290  0.11631  0.33599  1.0000
  I   I52       1.0  0.19520  0.36357  0.17429  1.0000
  I   I53       1.0  0.14920  0.37724  0.53531  1.0000
  I   I54       1.0  0.20165  0.35481  0.83582  1.0000
  I   I55       1.0  0.09773  0.64411  0.47053  1.0000
  I   I56       1.0  0.89819  0.83431  0.89841  1.0000
  I   I57       1.0  0.99649  0.76189  0.22385  1.0000
  I   I58       1.0  0.00394  0.94494  0.12242  1.0000
  I   I59       1.0  0.91205  0.89641  0.37138  1.0000
  I   I60       1.0  0.10729  0.88923  0.88640  1.0000
  I   I61       1.0  0.47179  0.18746  0.19456  1.0000
  I   I62       1.0  0.45357  0.20522  0.57537  1.0000
  I   I63       1.0  0.47717  0.18349  0.89910  1.0000
  I   I64       1.0  0.31406  0.46413  0.65803  1.0000
  I   I65       1.0  0.24020  0.52035  0.96958  1.0000
  I   I66       1.0  0.24422  0.47024  0.28576  1.0000
  I   I67       1.0  0.35370  0.76062  0.27900  1.0000
  I   I68       1.0  0.33570  0.73450  0.01071  1.0000
  I   I69       1.0  0.27097  0.67215  0.22138  1.0000
  I   I70       1.0  0.32480  0.94003  0.63715  1.0000
  I   I71       1.0  0.47747  0.90522  0.98619  1.0000
  I   I72       1.0  0.49657  0.85394  0.30680  1.0000
  I   I73       1.0  0.60419  0.24129  0.41947  1.0000
  I   I74       1.0  0.61943  0.23157  0.74830  1.0000
  I   I75       1.0  0.61261  0.23377  0.05563  1.0000
  I   I76       1.0  0.56196  0.43737  0.04480  1.0000
  I   I77       1.0  0.54667  0.41375  0.32832  1.0000
  I   I78       1.0  0.58451  0.43052  0.73521  1.0000
  I   I79       1.0  0.59042  0.68697  0.11343  1.0000
  I   I80       1.0  0.55522  0.67536  0.45893  1.0000
  I   I81       1.0  0.68906  0.57768  0.85277  1.0000
  I   I82       1.0  0.68496  0.81464  0.16811  1.0000
  I   I83       1.0  0.65313  0.83192  0.48362  1.0000
  I   I84       1.0  0.65379  0.81848  0.83042  1.0000
  I   I85       1.0  0.85954  0.18274  0.09064  1.0000
  I   I86       1.0  0.90036  0.15319  0.42509  1.0000
  I   I87       1.0  0.88693  0.16841  0.75494  1.0000
  I   I88       1.0  0.97750  0.32431  0.99205  1.0000
  I   I89       1.0  0.96594  0.27457  0.39200  1.0000
  I   I90       1.0  0.07870  0.20756  0.63645  1.0000
  I   I91       1.0  0.89993  0.60849  0.15065  1.0000
  I   I92       1.0  0.91686  0.54256  0.54595  1.0000
  I   I93       1.0  0.90789  0.57440  0.86272  1.0000
  I   I94       1.0  0.70843  0.00641  0.13071  1.0000
  I   I95       1.0  0.68449  0.99754  0.45392  1.0000
  I   I96       1.0  0.70981  0.00199  0.79351  1.0000
  I   I97       1.0  0.33501  0.09595  0.44921  1.0000
  I   I98       1.0  0.27224  0.14700  0.77502  1.0000
  I   I99       1.0  0.23199  0.06757  0.17579  1.0000
  I   I100      1.0  0.22950  0.32173  0.01744  1.0000
  I   I101      1.0  0.22479  0.32961  0.32418  1.0000
  I   I102      1.0  0.22561  0.33173  0.66228  1.0000
  I   I103      1.0  0.06981  0.69559  0.32243  1.0000
  I   I104      1.0  0.10808  0.57434  0.58655  1.0000
  I   I105      1.0  0.94859  0.78373  0.04072  1.0000
  I   I106      1.0  0.09847  0.87229  0.04458  1.0000
  I   I107      1.0  0.95686  0.97691  0.27046  1.0000
  I   I108      1.0  0.15207  0.88046  0.73899  1.0000
  I   I109      1.0  0.49218  0.14603  0.04686  1.0000
  I   I110      1.0  0.48084  0.17045  0.35679  1.0000
  I   I111      1.0  0.50205  0.14348  0.73636  1.0000
  I   I112      1.0  0.37028  0.42304  0.52990  1.0000
  I   I113      1.0  0.32446  0.46087  0.85853  1.0000
  I   I114      1.0  0.23728  0.51219  0.14265  1.0000
  I   I115      1.0  0.34556  0.67806  0.31262  1.0000
  I   I116      1.0  0.26802  0.87070  0.41796  1.0000
  I   I117      1.0  0.37658  0.70722  0.86792  1.0000
  I   I118      1.0  0.42402  0.89098  0.64593  1.0000
  I   I119      1.0  0.23613  0.92794  0.65624  1.0000
  I   I120      1.0  0.41632  0.93861  0.12320  1.0000
  I   I121      1.0  0.63071  0.23232  0.22439  1.0000
  I   I122      1.0  0.66908  0.21240  0.59443  1.0000
  I   I123      1.0  0.66949  0.20100  0.90613  1.0000
  I   I124      1.0  0.61499  0.42055  0.90687  1.0000
  I   I125      1.0  0.57487  0.44772  0.19550  1.0000
  I   I126      1.0  0.64313  0.42536  0.59476  1.0000
  I   I127      1.0  0.67602  0.59534  0.03095  1.0000
  I   I128      1.0  0.55434  0.70972  0.28047  1.0000
  I   I129      1.0  0.75286  0.49835  0.75314  1.0000
  I   I130      1.0  0.71525  0.81504  0.97173  1.0000
  I   I131      1.0  0.72012  0.79655  0.32588  1.0000
  I   I132      1.0  0.70011  0.82117  0.64901  1.0000
  I   I133      1.0  0.88457  0.13675  0.92181  1.0000
  I   I134      1.0  0.89011  0.12353  0.27549  1.0000
  I   I135      1.0  0.90370  0.14003  0.59095  1.0000
  I   I136      1.0  0.15151  0.11665  0.70456  1.0000
  I   I137      1.0  0.05493  0.26686  0.08245  1.0000
  I   I138      1.0  0.04852  0.22677  0.45325  1.0000
  I   I139      1.0  0.93145  0.54121  0.04892  1.0000
  I   I140      1.0  0.97320  0.47903  0.41194  1.0000
  I   I141      1.0  0.94850  0.52771  0.72461  1.0000
  I   I142      1.0  0.75577  0.98098  0.96872  1.0000
  I   I143      1.0  0.73066  0.97753  0.31072  1.0000
  I   I144      1.0  0.73214  0.98130  0.62265  1.0000
  I   I145      1.0  0.33070  0.05106  0.61794  1.0000
  I   I146      1.0  0.17595  0.98353  0.15716  1.0000
  I   I147      1.0  0.27928  0.02540  0.33952  1.0000
  I   I148      1.0  0.21617  0.27433  0.13930  1.0000
  I   I149      1.0  0.17113  0.29484  0.48209  1.0000
  I   I150      1.0  0.20468  0.27733  0.79881  1.0000
  I   I151      1.0  0.09166  0.58053  0.36890  1.0000
  I   I152      1.0  0.87376  0.76881  0.84411  1.0000
  I   I153      1.0  0.00446  0.69143  0.12260  1.0000
  I   I154      1.0  0.03904  0.85583  0.17273  1.0000
  I   I155      1.0  0.09849  0.94337  0.61457  1.0000
  I   I156      1.0  0.16470  0.80200  0.85264  1.0000
  I   I157      1.0  0.43036  0.13089  0.18269  1.0000
  I   I158      1.0  0.44145  0.13760  0.50891  1.0000
  I   I159      1.0  0.44320  0.12998  0.85254  1.0000
  I   I160      1.0  0.36047  0.37567  0.66835  1.0000
  I   I161      1.0  0.25940  0.42797  0.95813  1.0000
  I   I162      1.0  0.38619  0.34704  0.33542  1.0000
  I   I163      1.0  0.31558  0.75768  0.42739  1.0000
  I   I164      1.0  0.30287  0.67395  0.84616  1.0000
  I   I165      1.0  0.22755  0.66289  0.38104  1.0000
  I   I166      1.0  0.34705  0.90496  0.78574  1.0000
  I   I167      1.0  0.50053  0.81194  0.02200  1.0000
  I   I168      1.0  0.46682  0.77406  0.53417  1.0000
  I   I169      1.0  0.67564  0.16213  0.33538  1.0000
  I   I170      1.0  0.65956  0.14352  0.70543  1.0000
  I   I171      1.0  0.64702  0.14590  0.02677  1.0000
  I   I172      1.0  0.62065  0.35527  0.02278  1.0000
  I   I173      1.0  0.71030  0.37416  0.44834  1.0000
  I   I174      1.0  0.65677  0.34185  0.70929  1.0000
  I   I175      1.0  0.61306  0.59577  0.15531  1.0000
  I   I176      1.0  0.70158  0.52407  0.53487  1.0000
  I   I177      1.0  0.68029  0.50038  0.86696  1.0000
  I   I178      1.0  0.73108  0.73863  0.09370  1.0000
  I   I179      1.0  0.71298  0.74327  0.45060  1.0000
  I   I180      1.0  0.71923  0.73626  0.77467  1.0000
  I   I181      1.0  0.82576  0.13202  0.05714  1.0000
  I   I182      1.0  0.83495  0.12264  0.39589  1.0000
  I   I183      1.0  0.82499  0.13841  0.71553  1.0000
  I   I184      1.0  0.95039  0.26690  0.95042  1.0000
  I   I185      1.0  0.97923  0.21108  0.29299  1.0000
  I   I186      1.0  0.09736  0.14023  0.56383  1.0000
  I   I187      1.0  0.89132  0.51890  0.21557  1.0000
  I   I188      1.0  0.90781  0.46012  0.54464  1.0000
  I   I189      1.0  0.89102  0.50928  0.83324  1.0000
  I   I190      1.0  0.75727  0.88603  0.14729  1.0000
  I   I191      1.0  0.70991  0.91597  0.44452  1.0000
  I   I192      1.0  0.74074  0.91683  0.76066  1.0000
  I   I193      1.0  0.36934  0.07146  0.74478  1.0000
  I   I194      1.0  0.18954  0.02768  0.04309  1.0000
  I   I195      1.0  0.33019  0.07190  0.28260  1.0000
  I   I196      1.0  0.29637  0.30602  0.20612  1.0000
  I   I197      1.0  0.25526  0.30537  0.50858  1.0000
  I   I198      1.0  0.28242  0.26974  0.89416  1.0000
  I   I199      1.0  0.14627  0.50620  0.47035  1.0000
  I   I200      1.0  0.96953  0.75070  0.82646  1.0000
  I   I201      1.0  0.08478  0.70908  0.14920  1.0000
  I   I202      1.0  0.06342  0.90804  0.25817  1.0000
  I   I203      1.0  0.17662  0.84789  0.57271  1.0000
  I   I204      1.0  0.18683  0.83436  0.99472  1.0000
  I   I205      1.0  0.52382  0.09471  0.23239  1.0000
  I   I206      1.0  0.54027  0.12184  0.58011  1.0000
  I   I207      1.0  0.52786  0.08541  0.92925  1.0000
  I   I208      1.0  0.40019  0.43148  0.72336  1.0000
  I   I209      1.0  0.31235  0.44033  0.07233  1.0000
  I   I210      1.0  0.34760  0.45060  0.35141  1.0000
  I   I211      1.0  0.30436  0.85853  0.24952  1.0000
  I   I212      1.0  0.40777  0.60361  0.89944  1.0000
  I   I213      1.0  0.32066  0.60463  0.34400  1.0000
  I   I214      1.0  0.25973  0.97558  0.78316  1.0000
  I   I215      1.0  0.50610  0.87408  0.13497  1.0000
  I   I216      1.0  0.47859  0.85656  0.49137  1.0000
  I   I217      1.0  0.69466  0.23002  0.44800  1.0000
  I   I218      1.0  0.71400  0.19150  0.74598  1.0000
  I   I219      1.0  0.69939  0.18610  0.08019  1.0000
  I   I220      1.0  0.65584  0.40420  0.11598  1.0000
  I   I221      1.0  0.72955  0.37676  0.61783  1.0000
  I   I222      1.0  0.68006  0.40221  0.78025  1.0000
  I   I223      1.0  0.65544  0.64337  0.23198  1.0000
  I   I224      1.0  0.77169  0.54493  0.60305  1.0000
  I   I225      1.0  0.75921  0.51602  0.93670  1.0000
  I   I226      1.0  0.78713  0.75939  0.21083  1.0000
  I   I227      1.0  0.73906  0.82024  0.49312  1.0000
  I   I228      1.0  0.73156  0.82170  0.80437  1.0000
  I   I229      1.0  0.91123  0.08378  0.12281  1.0000
  I   I230      1.0  0.92852  0.06622  0.46441  1.0000
  I   I231      1.0  0.92322  0.07235  0.79049  1.0000
  I   I232      1.0  0.03273  0.23884  0.91912  1.0000
  I   I233      1.0  0.04151  0.23027  0.27275  1.0000
  I   I234      1.0  0.09160  0.07515  0.72746  1.0000
  I   I235      1.0  0.98536  0.51418  0.26084  1.0000
  I   I236      1.0  0.99262  0.46729  0.59274  1.0000
  I   I237      1.0  0.96624  0.48294  0.93911  1.0000
  I   I238      1.0  0.81310  0.91678  0.23026  1.0000
  I   I239      1.0  0.78023  0.93183  0.47684  1.0000
  I   I240      1.0  0.80036  0.95002  0.80126  1.0000
  I   I241      1.0  0.29817  0.04758  0.79536  1.0000
  I   I242      1.0  0.26588  0.97457  0.17697  1.0000
  I   I243      1.0  0.35898  0.00457  0.40528  1.0000
  I   I244      1.0  0.27292  0.23866  0.26615  1.0000
  I   I245      1.0  0.23992  0.24020  0.59082  1.0000
  I   I246      1.0  0.22790  0.23681  0.93835  1.0000
  I   I247      1.0  0.05309  0.53632  0.52051  1.0000
  I   I248      1.0  0.94365  0.71031  0.97152  1.0000
  I   I249      1.0  0.08578  0.62551  0.17855  1.0000
  I   I250      1.0  0.99815  0.89323  0.34782  1.0000
  I   I251      1.0  0.08016  0.86627  0.54745  1.0000
  I   I252      1.0  0.15798  0.77193  0.02098  1.0000
  I   I253      1.0  0.46279  0.09071  0.35256  1.0000
  I   I254      1.0  0.48611  0.07484  0.61600  1.0000
  I   I255      1.0  0.44784  0.09110  0.01647  1.0000
  I   I256      1.0  0.38446  0.36485  0.81990  1.0000
  I   I257      1.0  0.25055  0.41904  0.13190  1.0000
  I   I258      1.0  0.43911  0.37618  0.39478  1.0000
  I   I259      1.0  0.35772  0.83227  0.38741  1.0000
  I   I260      1.0  0.43486  0.65386  0.01223  1.0000
  I   I261      1.0  0.29906  0.68039  0.45380  1.0000
  I   I262      1.0  0.25140  0.90369  0.81517  1.0000
  I   I263      1.0  0.45048  0.85006  0.18514  1.0000
  I   I264      1.0  0.51427  0.80356  0.62245  1.0000
  I   I265      1.0  0.71845  0.13532  0.48553  1.0000
  I   I266      1.0  0.71633  0.10920  0.82663  1.0000
  I   I267      1.0  0.69184  0.11820  0.17763  1.0000
  I   I268      1.0  0.64332  0.33345  0.18662  1.0000
  I   I269      1.0  0.73491  0.29499  0.55933  1.0000
  I   I270      1.0  0.68196  0.32089  0.88170  1.0000
  I   I271      1.0  0.60271  0.61885  0.33998  1.0000
  I   I272      1.0  0.78302  0.45089  0.60815  1.0000
  I   I273      1.0  0.69784  0.49734  0.03920  1.0000
  I   I274      1.0  0.75848  0.69415  0.26383  1.0000
  I   I275      1.0  0.76794  0.74529  0.59772  1.0000
  I   I276      1.0  0.78560  0.73440  0.88223  1.0000
  I   I277      1.0  0.81887  0.10124  0.21513  1.0000
  I   I278      1.0  0.85902  0.07603  0.56325  1.0000
  I   I279      1.0  0.83600  0.08774  0.85700  1.0000
  I   I280      1.0  0.01668  0.19898  0.06568  1.0000
  I   I281      1.0  0.06725  0.13980  0.35438  1.0000
  I   I282      1.0  0.06393  0.16480  0.79008  1.0000
  I   I283      1.0  0.97745  0.43661  0.25285  1.0000
  I   I284      1.0  0.93731  0.43947  0.69442  1.0000
  I   I285      1.0  0.88537  0.48506  0.00029  1.0000
  I   I286      1.0  0.77497  0.86112  0.30919  1.0000
  I   I287      1.0  0.76306  0.88305  0.59294  1.0000
  I   I288      1.0  0.79290  0.88771  0.91181  1.0000
  I   I289      1.0  0.24817  0.11023  0.64153  1.0000
  I   I290      1.0  0.07412  0.02580  0.13099  1.0000
  I   I291      1.0  0.19294  0.07754  0.41979  1.0000
  I   I292      1.0  0.12111  0.33857  0.14328  1.0000
  I   I293      1.0  0.06285  0.38189  0.47169  1.0000
  I   I294      1.0  0.10909  0.36462  0.79644  1.0000
  I   I295      1.0  0.02787  0.61356  0.46454  1.0000
  I   I296      1.0  0.85962  0.84200  0.73710  1.0000
  I   I297      1.0  0.91757  0.72954  0.18505  1.0000
  I   I298      1.0  0.97370  0.88350  0.04659  1.0000
  I   I299      1.0  0.85181  0.97904  0.27856  1.0000
  I   I300      1.0  0.06795  0.83579  0.82874  1.0000
  I   I301      1.0  0.37106  0.21028  0.16007  1.0000
  I   I302      1.0  0.36199  0.22285  0.47542  1.0000
  I   I303      1.0  0.38201  0.22717  0.82228  1.0000
  I   I304      1.0  0.28008  0.39128  0.59037  1.0000
  I   I305      1.0  0.18821  0.50053  0.85003  1.0000
  I   I306      1.0  0.17311  0.44922  0.26462  1.0000
  I   I307      1.0  0.25282  0.81691  0.28035  1.0000
  I   I308      1.0  0.28370  0.76823  0.82928  1.0000
  I   I309      1.0  0.32270  0.55768  0.17244  1.0000
  I   I310      1.0  0.33170  0.85268  0.68754  1.0000
  I   I311      1.0  0.43815  0.89282  0.84110  1.0000
  I   I312      1.0  0.39932  0.93039  0.28817  1.0000
  I   I313      1.0  0.60187  0.15391  0.37232  1.0000
  I   I314      1.0  0.56146  0.20235  0.68311  1.0000
  I   I315      1.0  0.54792  0.20128  0.99546  1.0000
  I   I316      1.0  0.52437  0.38142  0.98442  1.0000
  I   I317      1.0  0.46576  0.42445  0.22332  1.0000
  I   I318      1.0  0.56366  0.36594  0.65435  1.0000
  I   I319      1.0  0.53978  0.64309  0.06280  1.0000
  I   I320      1.0  0.52085  0.60719  0.43066  1.0000
  I   I321      1.0  0.61334  0.58207  0.77184  1.0000
  I   I322      1.0  0.63565  0.77187  0.08787  1.0000
  I   I323      1.0  0.61831  0.78188  0.42834  1.0000
  I   I324      1.0  0.61643  0.76888  0.75715  1.0000
  I   I325      1.0  0.76936  0.21735  0.02301  1.0000
  I   I326      1.0  0.79712  0.22941  0.38731  1.0000
  I   I327      1.0  0.80363  0.23431  0.71317  1.0000
  I   I328      1.0  0.91838  0.35661  0.84776  1.0000
  I   I329      1.0  0.90879  0.29317  0.25954  1.0000
  I   I330      1.0  0.02832  0.15738  0.64387  1.0000
  I   I331      1.0  0.81835  0.65759  0.08050  1.0000
  I   I332      1.0  0.83287  0.54784  0.49281  1.0000
  I   I333      1.0  0.81450  0.59643  0.79182  1.0000
  I   I334      1.0  0.64867  0.97896  0.08049  1.0000
  I   I335      1.0  0.62137  0.96367  0.37761  1.0000
  I   I336      1.0  0.64708  0.95830  0.76259  1.0000
  I   I337      1.0  0.24846  0.15799  0.48678  1.0000
  I   I338      1.0  0.09232  0.09275  0.01962  1.0000
  I   I339      1.0  0.16131  0.13536  0.28360  1.0000
  I   I340      1.0  0.13952  0.40621  0.04691  1.0000
  I   I341      1.0  0.11651  0.41608  0.39216  1.0000
  I   I342      1.0  0.14449  0.40578  0.70681  1.0000
  I   I343      1.0  0.01386  0.71427  0.44824  1.0000
  I   I344      1.0  0.94858  0.82815  0.70688  1.0000
  I   I345      1.0  0.90275  0.82192  0.17054  1.0000
  I   I346      1.0  0.02258  0.91919  0.95720  1.0000
  I   I347      1.0  0.89412  0.99098  0.41064  1.0000
  I   I348      1.0  0.06209  0.90512  0.71185  1.0000
  I   I349      1.0  0.42305  0.24623  0.06644  1.0000
  I   I350      1.0  0.42073  0.26054  0.40536  1.0000
  I   I351      1.0  0.44942  0.23764  0.75054  1.0000
  I   I352      1.0  0.27828  0.46384  0.50426  1.0000
  I   I353      1.0  0.24953  0.52702  0.79798  1.0000
  I   I354      1.0  0.14731  0.53282  0.22082  1.0000
  I   I355      1.0  0.29258  0.74465  0.18726  1.0000
  I   I356      1.0  0.26118  0.73002  0.98019  1.0000
  I   I357      1.0  0.27680  0.56065  0.32872  1.0000
  I   I358      1.0  0.37350  0.86647  0.53842  1.0000
  I   I359      1.0  0.53051  0.81328  0.86417  1.0000
  I   I360      1.0  0.46992  0.95169  0.25059  1.0000
  I   I361      1.0  0.54470  0.25106  0.29917  1.0000
  I   I362      1.0  0.57412  0.26777  0.58730  1.0000
  I   I363      1.0  0.57464  0.26585  0.90708  1.0000
  I   I364      1.0  0.51989  0.45361  0.87987  1.0000
  I   I365      1.0  0.47740  0.49445  0.25751  1.0000
  I   I366      1.0  0.55603  0.43195  0.57613  1.0000
  I   I367      1.0  0.58473  0.66917  0.95015  1.0000
  I   I368      1.0  0.47717  0.69993  0.37312  1.0000
  I   I369      1.0  0.68456  0.58013  0.67314  1.0000
  I   I370      1.0  0.62997  0.85093  0.99597  1.0000
  I   I371      1.0  0.62312  0.85845  0.33951  1.0000
  I   I372      1.0  0.60789  0.85220  0.69937  1.0000
  I   I373      1.0  0.83820  0.24423  0.96690  1.0000
  I   I374      1.0  0.87742  0.21295  0.29840  1.0000
  I   I375      1.0  0.84448  0.23102  0.57043  1.0000
  I   I376      1.0  0.01827  0.30646  0.82233  1.0000
  I   I377      1.0  0.96936  0.33490  0.26993  1.0000
  I   I378      1.0  0.97453  0.25923  0.56968  1.0000
  I   I379      1.0  0.89975  0.64589  0.99236  1.0000
  I   I380      1.0  0.89716  0.55390  0.37624  1.0000
  I   I381      1.0  0.87073  0.62731  0.70662  1.0000
  I   I382      1.0  0.65645  0.04058  0.97347  1.0000
  I   I383      1.0  0.63241  0.03894  0.29711  1.0000
  I   I384      1.0  0.63743  0.04234  0.69629  1.0000
