data_image0
_chemical_formula_structural       Ti96I384
_chemical_formula_sum              "Ti96 I384"
_cell_length_a       66.8573
_cell_length_b       66.8122
_cell_length_c       32.7078
_cell_angle_alpha    88.7757
_cell_angle_beta     88.7757
_cell_angle_gamma    62.1586

_space_group_name_H-M_alt    "P 1"
_space_group_IT_number       1

loop_
  _space_group_symop_operation_xyz
  'x, y, z'

loop_
  _atom_site_type_symbol
  _atom_site_label
  _atom_site_symmetry_multiplicity
  _atom_site_fract_x
  _atom_site_fract_y
  _atom_site_fract_z
  _atom_site_occupancy
  Ti  Ti1       1.0  0.13004  0.76489  0.20770  1.0000
  Ti  Ti2       1.0  0.59223  0.98601  0.04476  1.0000
  Ti  Ti3       1.0  0.70558  0.95287  0.45427  1.0000
  Ti  Ti4       1.0  0.90766  0.05018  0.14453  1.0000
  Ti  Ti5       1.0  0.77210  0.73305  0.41746  1.0000
  Ti  Ti6       1.0  0.05942  0.55662  0.75436  1.0000
  Ti  Ti7       1.0  0.86907  0.30731  0.52858  1.0000
  Ti  Ti8       1.0  0.28569  0.06783  0.54312  1.0000
  Ti  Ti9       1.0  0.28131  0.85660  0.98456  1.0000
  Ti  Ti10      1.0  0.80422  0.01902  0.19203  1.0000
  Ti  Ti11      1.0  0.05882  0.18381  0.74120  1.0000
  Ti  Ti12      1.0  0.15589  0.55590  0.43534  1.0000
  Ti  Ti13      1.0  0.17181  0.06799  0.99997  1.0000
  Ti  Ti14      1.0  0.03063  0.09937  0.43195  1.0000
  Ti  Ti15      1.0  0.61167  0.09871  0.63898  1.0000
  Ti  Ti16      1.0  0.79446  0.06901  0.20165  1.0000
  Ti  Ti17      1.0  0.30902  0.01234  0.94934  1.0000
  Ti  Ti18      1.0  0.04296  0.70253  0.23719  1.0000
  Ti  Ti19      1.0  0.51812  0.48544  0.98755  1.0000
  Ti  Ti20      1.0  0.27604  0.90240  0.56871  1.0000
  Ti  Ti21      1.0  0.35303  0.03179  0.55316  1.0000
  Ti  Ti22      1.0  0.70689  0.71552  0.74567  1.0000
  Ti  Ti23      1.0  0.52512  0.04199  0.69488  1.0000
  Ti  Ti24      1.0  0.32213  0.75760  0.80597  1.0000
  Ti  Ti25      1.0  0.57647  0.87506  0.68664  1.0000
  Ti  Ti26      1.0  0.36767  0.82460  0.42149  1.0000
  Ti  Ti27      1.0  0.79029  0.02158  0.55052  1.0000
  Ti  Ti28      1.0  0.69258  0.47184  0.66409  1.0000
  Ti  Ti29      1.0  0.89709  0.95129  0.95356  1.0000
  Ti  Ti30      1.0  0.31205  0.13137  0.27293  1.0000
  Ti  Ti31      1.0  0.08178  0.79766  0.62045  1.0000
  Ti  Ti32      1.0  0.81701  0.36777  0.10581  1.0000
  Ti  Ti33      1.0  0.09818  0.88706  0.24252  1.0000
  Ti  Ti34      1.0  0.40631  0.50574  0.87428  1.0000
  Ti  Ti35      1.0  0.65439  0.61303  0.03662  1.0000
  Ti  Ti36      1.0  0.76089  0.98602  0.88088  1.0000
  Ti  Ti37      1.0  0.10791  0.47795  0.34454  1.0000
  Ti  Ti38      1.0  0.60661  0.31143  0.07138  1.0000
  Ti  Ti39      1.0  0.93464  0.55048  0.22935  1.0000
  Ti  Ti40      1.0  0.27455  0.30757  0.98010  1.0000
  Ti  Ti41      1.0  0.44183  0.71826  0.56732  1.0000
  Ti  Ti42      1.0  0.89699  0.45463  0.32103  1.0000
  Ti  Ti43      1.0  0.57992  0.19580  0.43946  1.0000
  Ti  Ti44      1.0  0.87817  0.40537  0.61628  1.0000
  Ti  Ti45      1.0  0.38288  0.56427  0.69657  1.0000
  Ti  Ti46      1.0  0.50796  0.45207  0.41161  1.0000
  Ti  Ti47      1.0  0.23289  0.52399  0.17528  1.0000
  Ti  Ti48      1.0  0.59583  0.20485  0.68991  1.0000
  Ti  Ti49      1.0  0.78846  0.61012  0.44605  1.0000
  Ti  Ti50      1.0  0.00674  0.32057  0.80648  1.0000
  Ti  Ti51      1.0  0.60071  0.00401  0.92056  1.0000
  Ti  Ti52      1.0  0.95905  0.06722  0.18997  1.0000
  Ti  Ti53      1.0  0.44278  0.66589  0.95821  1.0000
  Ti  Ti54      1.0  0.13006  0.50128  0.80527  1.0000
  Ti  Ti55      1.0  0.86938  0.26539  0.42107  1.0000
  Ti  Ti56      1.0  0.28753  0.49485  0.71456  1.0000
  Ti  Ti57      1.0  0.27720  0.89613  0.03051  1.0000
  Ti  Ti58      1.0  0.63799  0.20093  0.36459  1.0000
  Ti  Ti59      1.0  0.15167  0.29676  0.91458  1.0000
  Ti  Ti60      1.0  0.16226  0.59982  0.52346  1.0000
  Ti  Ti61      1.0  0.63995  0.03701  0.66701  1.0000
  Ti  Ti62      1.0  0.15894  0.03235  0.90661  1.0000
  Ti  Ti63      1.0  0.95805  0.12931  0.47011  1.0000
  Ti  Ti64      1.0  0.01218  0.74670  0.15956  1.0000
  Ti  Ti65      1.0  0.95450  0.57614  0.68172  1.0000
  Ti  Ti66      1.0  0.54116  0.25594  0.12656  1.0000
  Ti  Ti67      1.0  0.58298  0.43990  0.05012  1.0000
  Ti  Ti68      1.0  0.99760  0.48027  0.00685  1.0000
  Ti  Ti69      1.0  0.44128  0.89560  0.92015  1.0000
  Ti  Ti70      1.0  0.65106  0.67815  0.70469  1.0000
  Ti  Ti71      1.0  0.53654  0.99943  0.60970  1.0000
  Ti  Ti72      1.0  0.04969  0.14498  0.20483  1.0000
  Ti  Ti73      1.0  0.80642  0.06811  0.60353  1.0000
  Ti  Ti74      1.0  0.61964  0.86791  0.80458  1.0000
  Ti  Ti75      1.0  0.39417  0.83667  0.32136  1.0000
  Ti  Ti76      1.0  0.30725  0.07985  0.30316  1.0000
  Ti  Ti77      1.0  0.64357  0.52964  0.59802  1.0000
  Ti  Ti78      1.0  0.94965  0.87441  0.97137  1.0000
  Ti  Ti79      1.0  0.64339  0.33257  0.49581  1.0000
  Ti  Ti80      1.0  0.73853  0.15927  0.11198  1.0000
  Ti  Ti81      1.0  0.79328  0.33142  0.09499  1.0000
  Ti  Ti82      1.0  0.47350  0.45079  0.80555  1.0000
  Ti  Ti83      1.0  0.66062  0.55714  0.07224  1.0000
  Ti  Ti84      1.0  0.74679  0.94726  0.89095  1.0000
  Ti  Ti85      1.0  0.09652  0.46617  0.45581  1.0000
  Ti  Ti86      1.0  0.58552  0.28052  0.15038  1.0000
  Ti  Ti87      1.0  0.88601  0.59341  0.15513  1.0000
  Ti  Ti88      1.0  0.56942  0.64591  0.32262  1.0000
  Ti  Ti89      1.0  0.47905  0.71266  0.64556  1.0000
  Ti  Ti90      1.0  0.89071  0.47380  0.22394  1.0000
  Ti  Ti91      1.0  0.31713  0.56875  0.69068  1.0000
  Ti  Ti92      1.0  0.12143  0.70058  0.84222  1.0000
  Ti  Ti93      1.0  0.91267  0.42466  0.55968  1.0000
  Ti  Ti94      1.0  0.63669  0.23930  0.64809  1.0000
  Ti  Ti95      1.0  0.49602  0.42147  0.35766  1.0000
  Ti  Ti96      1.0  0.23679  0.47967  0.13686  1.0000
  I   I1        1.0  0.27166  0.44541  0.11302  1.0000
  I   I2        1.0  0.56718  0.97081  0.08431  1.0000
  I   I3        1.0  0.74353  0.64803  0.43781  1.0000
  I   I4        1.0  0.45120  0.68060  0.88796  1.0000
  I   I5        1.0  0.08159  0.53203  0.83396  1.0000
  I   I6        1.0  0.14201  0.51216  0.87033  1.0000
  I   I7        1.0  0.27419  0.09797  0.48035  1.0000
  I   I8        1.0  0.29874  0.45484  0.74151  1.0000
  I   I9        1.0  0.26631  0.89718  0.94549  1.0000
  I   I10       1.0  0.79290  0.10956  0.17674  1.0000
  I   I11       1.0  0.08446  0.20086  0.72485  1.0000
  I   I12       1.0  0.77814  0.69437  0.43918  1.0000
  I   I13       1.0  0.14673  0.05091  0.03389  1.0000
  I   I14       1.0  0.99311  0.13865  0.49214  1.0000
  I   I15       1.0  0.57031  0.12795  0.65857  1.0000
  I   I16       1.0  0.78948  0.04817  0.27880  1.0000
  I   I17       1.0  0.50138  0.27905  0.08970  1.0000
  I   I18       1.0  0.97691  0.74416  0.17080  1.0000
  I   I19       1.0  0.24024  0.93838  0.54354  1.0000
  I   I20       1.0  0.03931  0.17752  0.68003  1.0000
  I   I21       1.0  0.37313  0.03820  0.62031  1.0000
  I   I22       1.0  0.51603  0.03154  0.76680  1.0000
  I   I23       1.0  0.54823  0.03381  0.60932  1.0000
  I   I24       1.0  0.65073  0.69865  0.63436  1.0000
  I   I25       1.0  0.62344  0.83100  0.83375  1.0000
  I   I26       1.0  0.40398  0.81062  0.25255  1.0000
  I   I27       1.0  0.80496  0.09147  0.53772  1.0000
  I   I28       1.0  0.63996  0.53162  0.52057  1.0000
  I   I29       1.0  0.92518  0.91446  0.01958  1.0000
  I   I30       1.0  0.32843  0.13881  0.34283  1.0000
  I   I31       1.0  0.71928  0.13692  0.15060  1.0000
  I   I32       1.0  0.79051  0.30732  0.03737  1.0000
  I   I33       1.0  0.63278  0.36568  0.44971  1.0000
  I   I34       1.0  0.67125  0.51696  0.04332  1.0000
  I   I35       1.0  0.79287  0.99159  0.85037  1.0000
  I   I36       1.0  0.36723  0.52166  0.84807  1.0000
  I   I37       1.0  0.13176  0.42598  0.47719  1.0000
  I   I38       1.0  0.85201  0.59185  0.20945  1.0000
  I   I39       1.0  0.09253  0.44805  0.37152  1.0000
  I   I40       1.0  0.46253  0.72417  0.72074  1.0000
  I   I41       1.0  0.87759  0.45191  0.16318  1.0000
  I   I42       1.0  0.25950  0.31266  0.90422  1.0000
  I   I43       1.0  0.66784  0.19480  0.42663  1.0000
  I   I44       1.0  0.91413  0.41599  0.64303  1.0000
  I   I45       1.0  0.34804  0.55781  0.74831  1.0000
  I   I46       1.0  0.51733  0.38061  0.32742  1.0000
  I   I47       1.0  0.23361  0.54542  0.23937  1.0000
  I   I48       1.0  0.56316  0.21247  0.63498  1.0000
  I   I49       1.0  0.80682  0.57103  0.48263  1.0000
  I   I50       1.0  0.57502  0.02120  0.98248  1.0000
  I   I51       1.0  0.60041  0.96355  0.96833  1.0000
  I   I52       1.0  0.92264  0.00490  0.13886  1.0000
  I   I53       1.0  0.40123  0.67734  0.95090  1.0000
  I   I54       1.0  0.15850  0.50283  0.75204  1.0000
  I   I55       1.0  0.84680  0.35079  0.49528  1.0000
  I   I56       1.0  0.29029  0.06060  0.61880  1.0000
  I   I57       1.0  0.25245  0.84450  0.94780  1.0000
  I   I58       1.0  0.82720  0.00536  0.12085  1.0000
  I   I59       1.0  0.11003  0.30890  0.94384  1.0000
  I   I60       1.0  0.15896  0.64363  0.51941  1.0000
  I   I61       1.0  0.11759  0.04173  0.91594  1.0000
  I   I62       1.0  0.14861  0.11147  0.01707  1.0000
  I   I63       1.0  0.04740  0.06608  0.37950  1.0000
  I   I64       1.0  0.77877  0.00289  0.15773  1.0000
  I   I65       1.0  0.90928  0.59743  0.69451  1.0000
  I   I66       1.0  0.52725  0.24461  0.19650  1.0000
  I   I67       1.0  0.54329  0.43838  0.04189  1.0000
  I   I68       1.0  0.26889  0.90164  0.64598  1.0000
  I   I69       1.0  0.40080  0.89932  0.92621  1.0000
  I   I70       1.0  0.61206  0.68578  0.67810  1.0000
  I   I71       1.0  0.51300  0.08394  0.68359  1.0000
  I   I72       1.0  0.03282  0.18830  0.20639  1.0000
  I   I73       1.0  0.78015  0.08788  0.66604  1.0000
  I   I74       1.0  0.35326  0.79556  0.43671  1.0000
  I   I75       1.0  0.41251  0.80226  0.37398  1.0000
  I   I76       1.0  0.67600  0.45514  0.61614  1.0000
  I   I77       1.0  0.61112  0.52142  0.62424  1.0000
  I   I78       1.0  0.95547  0.85437  0.04797  1.0000
  I   I79       1.0  0.10667  0.89683  0.31267  1.0000
  I   I80       1.0  0.11216  0.77487  0.67376  1.0000
  I   I81       1.0  0.75838  0.33371  0.13693  1.0000
  I   I82       1.0  0.51376  0.44616  0.79513  1.0000
  I   I83       1.0  0.68867  0.62060  0.00560  1.0000
  I   I84       1.0  0.73584  0.95546  0.96757  1.0000
  I   I85       1.0  0.06609  0.45247  0.47036  1.0000
  I   I86       1.0  0.56670  0.28061  0.07151  1.0000
  I   I87       1.0  0.95976  0.50807  0.20747  1.0000
  I   I88       1.0  0.27990  0.34411  0.98046  1.0000
  I   I89       1.0  0.49604  0.66876  0.66566  1.0000
  I   I90       1.0  0.91686  0.48338  0.17241  1.0000
  I   I91       1.0  0.28007  0.57526  0.73480  1.0000
  I   I92       1.0  0.15234  0.68428  0.89474  1.0000
  I   I93       1.0  0.84606  0.44219  0.65921  1.0000
  I   I94       1.0  0.61820  0.16133  0.69320  1.0000
  I   I95       1.0  0.50581  0.45133  0.49554  1.0000
  I   I96       1.0  0.22286  0.45277  0.17898  1.0000
  I   I97       1.0  0.72958  0.96899  0.41143  1.0000
  I   I98       1.0  0.15523  0.75136  0.13415  1.0000
  I   I99       1.0  0.63184  0.98667  0.04986  1.0000
  I   I100      1.0  0.92199  0.06051  0.22523  1.0000
  I   I101      1.0  0.92806  0.11005  0.20501  1.0000
  I   I102      1.0  0.76440  0.74269  0.34258  1.0000
  I   I103      1.0  0.91110  0.23556  0.38974  1.0000
  I   I104      1.0  0.84785  0.30332  0.59286  1.0000
  I   I105      1.0  0.29020  0.92851  0.04215  1.0000
  I   I106      1.0  0.11249  0.57271  0.43381  1.0000
  I   I107      1.0  0.83615  0.98994  0.23926  1.0000
  I   I108      1.0  0.16816  0.51408  0.44112  1.0000
  I   I109      1.0  0.60994  0.11588  0.56379  1.0000
  I   I110      1.0  0.14585  0.07910  0.92881  1.0000
  I   I111      1.0  0.95410  0.09585  0.50421  1.0000
  I   I112      1.0  0.03743  0.69211  0.16396  1.0000
  I   I113      1.0  0.96722  0.60719  0.67692  1.0000
  I   I114      1.0  0.35517  0.98822  0.95257  1.0000
  I   I115      1.0  0.55122  0.48735  0.03236  1.0000
  I   I116      1.0  0.51909  0.45625  0.92700  1.0000
  I   I117      1.0  0.02654  0.49289  0.02615  1.0000
  I   I118      1.0  0.68376  0.69460  0.72207  1.0000
  I   I119      1.0  0.66961  0.63171  0.72459  1.0000
  I   I120      1.0  0.04500  0.12190  0.14031  1.0000
  I   I121      1.0  0.82631  0.02104  0.58892  1.0000
  I   I122      1.0  0.60918  0.85825  0.62888  1.0000
  I   I123      1.0  0.38387  0.86400  0.39402  1.0000
  I   I124      1.0  0.32161  0.07330  0.37458  1.0000
  I   I125      1.0  0.73639  0.44944  0.68375  1.0000
  I   I126      1.0  0.91716  0.90610  0.91972  1.0000
  I   I127      1.0  0.10771  0.91371  0.19566  1.0000
  I   I128      1.0  0.70712  0.19260  0.06574  1.0000
  I   I129      1.0  0.81831  0.30281  0.15132  1.0000
  I   I130      1.0  0.78411  0.97534  0.95595  1.0000
  I   I131      1.0  0.43041  0.45570  0.83606  1.0000
  I   I132      1.0  0.64173  0.55299  0.14045  1.0000
  I   I133      1.0  0.96991  0.55977  0.22230  1.0000
  I   I134      1.0  0.62830  0.32931  0.11179  1.0000
  I   I135      1.0  0.62574  0.26669  0.11190  1.0000
  I   I136      1.0  0.90271  0.42368  0.37243  1.0000
  I   I137      1.0  0.53420  0.65422  0.36545  1.0000
  I   I138      1.0  0.44518  0.69030  0.51351  1.0000
  I   I139      1.0  0.39122  0.54944  0.62370  1.0000
  I   I140      1.0  0.13703  0.71271  0.77909  1.0000
  I   I141      1.0  0.88341  0.40987  0.53450  1.0000
  I   I142      1.0  0.57125  0.21134  0.75393  1.0000
  I   I143      1.0  0.45728  0.42720  0.32606  1.0000
  I   I144      1.0  0.22890  0.56205  0.13858  1.0000
  I   I145      1.0  0.08850  0.79704  0.19436  1.0000
  I   I146      1.0  0.58144  0.01570  0.10897  1.0000
  I   I147      1.0  0.66601  0.98217  0.44822  1.0000
  I   I148      1.0  0.94915  0.05470  0.11782  1.0000
  I   I149      1.0  0.81062  0.73112  0.44281  1.0000
  I   I150      1.0  0.07198  0.58677  0.73086  1.0000
  I   I151      1.0  0.85493  0.23984  0.46705  1.0000
  I   I152      1.0  0.25269  0.05906  0.55505  1.0000
  I   I153      1.0  0.26155  0.86584  0.06420  1.0000
  I   I154      1.0  0.62319  0.17167  0.41684  1.0000
  I   I155      1.0  0.07668  0.14755  0.79201  1.0000
  I   I156      1.0  0.20508  0.58738  0.54187  1.0000
  I   I157      1.0  0.65061  0.09309  0.68190  1.0000
  I   I158      1.0  0.92958  0.16581  0.50466  1.0000
  I   I159      1.0  0.68093  0.01686  0.70417  1.0000
  I   I160      1.0  0.04908  0.74403  0.20009  1.0000
  I   I161      1.0  0.30797  0.05097  0.97845  1.0000
  I   I162      1.0  0.99156  0.78903  0.18809  1.0000
  I   I163      1.0  0.48896  0.48827  0.04320  1.0000
  I   I164      1.0  0.01583  0.43773  0.98761  1.0000
  I   I165      1.0  0.37105  0.98648  0.58169  1.0000
  I   I166      1.0  0.71560  0.72149  0.81901  1.0000
  I   I167      1.0  0.49709  0.03440  0.64526  1.0000
  I   I168      1.0  0.30650  0.76072  0.88045  1.0000
  I   I169      1.0  0.59634  0.89535  0.86937  1.0000
  I   I170      1.0  0.58020  0.90047  0.75015  1.0000
  I   I171      1.0  0.80509  0.97588  0.53531  1.0000
  I   I172      1.0  0.32934  0.04820  0.25575  1.0000
  I   I173      1.0  0.89335  0.96849  0.88572  1.0000
  I   I174      1.0  0.30455  0.16800  0.22268  1.0000
  I   I175      1.0  0.07123  0.77120  0.57747  1.0000
  I   I176      1.0  0.81151  0.40260  0.15124  1.0000
  I   I177      1.0  0.60807  0.32578  0.52518  1.0000
  I   I178      1.0  0.48496  0.40738  0.82047  1.0000
  I   I179      1.0  0.69069  0.57202  0.08983  1.0000
  I   I180      1.0  0.71741  0.93522  0.85777  1.0000
  I   I181      1.0  0.09723  0.49107  0.51560  1.0000
  I   I182      1.0  0.58988  0.23738  0.14433  1.0000
  I   I183      1.0  0.90276  0.61354  0.11033  1.0000
  I   I184      1.0  0.56911  0.62805  0.25391  1.0000
  I   I185      1.0  0.40785  0.71944  0.60738  1.0000
  I   I186      1.0  0.93093  0.42800  0.26726  1.0000
  I   I187      1.0  0.11276  0.67032  0.81192  1.0000
  I   I188      1.0  0.89480  0.37076  0.66228  1.0000
  I   I189      1.0  0.33944  0.59813  0.66534  1.0000
  I   I190      1.0  0.51613  0.44830  0.31875  1.0000
  I   I191      1.0  0.03616  0.33665  0.82833  1.0000
  I   I192      1.0  0.64140  0.25395  0.57008  1.0000
  I   I193      1.0  0.14827  0.76537  0.27782  1.0000
  I   I194      1.0  0.98061  0.31012  0.85323  1.0000
  I   I195      1.0  0.71053  0.95231  0.53503  1.0000
  I   I196      1.0  0.86868  0.07181  0.16352  1.0000
  I   I197      1.0  0.57647  0.22021  0.37028  1.0000
  I   I198      1.0  0.03780  0.55674  0.69734  1.0000
  I   I199      1.0  0.89402  0.26501  0.48846  1.0000
  I   I200      1.0  0.24785  0.53095  0.72072  1.0000
  I   I201      1.0  0.29603  0.80919  0.00922  1.0000
  I   I202      1.0  0.16977  0.29087  0.98547  1.0000
  I   I203      1.0  0.47219  0.85692  0.95259  1.0000
  I   I204      1.0  0.15829  0.56507  0.35736  1.0000
  I   I205      1.0  0.19944  0.02827  0.95755  1.0000
  I   I206      1.0  0.92440  0.13808  0.40890  1.0000
  I   I207      1.0  0.62932  0.06090  0.74119  1.0000
  I   I208      1.0  0.74739  0.07761  0.19893  1.0000
  I   I209      1.0  0.27070  0.01431  0.98984  1.0000
  I   I210      1.0  0.08615  0.69063  0.24537  1.0000
  I   I211      1.0  0.60040  0.41342  0.11115  1.0000
  I   I212      1.0  0.31685  0.90007  0.58036  1.0000
  I   I213      1.0  0.44734  0.90101  0.84029  1.0000
  I   I214      1.0  0.74848  0.69430  0.71324  1.0000
  I   I215      1.0  0.55243  0.97233  0.67983  1.0000
  I   I216      1.0  0.32881  0.79309  0.78817  1.0000
  I   I217      1.0  0.53901  0.90225  0.65904  1.0000
  I   I218      1.0  0.35469  0.83643  0.32595  1.0000
  I   I219      1.0  0.75819  0.01368  0.58418  1.0000
  I   I220      1.0  0.68195  0.46401  0.74088  1.0000
  I   I221      1.0  0.90110  0.98395  0.98386  1.0000
  I   I222      1.0  0.27972  0.13227  0.31655  1.0000
  I   I223      1.0  0.04511  0.81036  0.66358  1.0000
  I   I224      1.0  0.85198  0.33990  0.14478  1.0000
  I   I225      1.0  0.13962  0.85225  0.22333  1.0000
  I   I226      1.0  0.46608  0.45231  0.73061  1.0000
  I   I227      1.0  0.62295  0.59640  0.03179  1.0000
  I   I228      1.0  0.74120  0.02543  0.91836  1.0000
  I   I229      1.0  0.11173  0.51378  0.32629  1.0000
  I   I230      1.0  0.63266  0.27881  0.01475  1.0000
  I   I231      1.0  0.86197  0.59163  0.09369  1.0000
  I   I232      1.0  0.06588  0.07613  0.48230  1.0000
  I   I233      1.0  0.42475  0.74916  0.51377  1.0000
  I   I234      1.0  0.85516  0.51309  0.23923  1.0000
  I   I235      1.0  0.65597  0.22525  0.32831  1.0000
  I   I236      1.0  0.91670  0.45667  0.59623  1.0000
  I   I237      1.0  0.27856  0.60108  0.65379  1.0000
  I   I238      1.0  0.46668  0.48647  0.40075  1.0000
  I   I239      1.0  0.20598  0.49472  0.08166  1.0000
  I   I240      1.0  0.60469  0.22903  0.61940  1.0000
  I   I241      1.0  0.80646  0.59369  0.36916  1.0000
  I   I242      1.0  0.63712  0.96612  0.90042  1.0000
  I   I243      1.0  0.70173  0.91661  0.43699  1.0000
  I   I244      1.0  0.99063  0.03451  0.23087  1.0000
  I   I245      1.0  0.45283  0.62439  0.99071  1.0000
  I   I246      1.0  0.13608  0.46193  0.81253  1.0000
  I   I247      1.0  0.83205  0.29944  0.47977  1.0000
  I   I248      1.0  0.31982  0.08057  0.55892  1.0000
  I   I249      1.0  0.32018  0.86042  0.03685  1.0000
  I   I250      1.0  0.17859  0.25536  0.88655  1.0000
  I   I251      1.0  0.01938  0.21304  0.76810  1.0000
  I   I252      1.0  0.14126  0.61317  0.58999  1.0000
  I   I253      1.0  0.17707  0.99098  0.92960  1.0000
  I   I254      1.0  0.98831  0.10694  0.40239  1.0000
  I   I255      1.0  0.65106  0.00156  0.62491  1.0000
  I   I256      1.0  0.95158  0.56538  0.60894  1.0000
  I   I257      1.0  0.29221  0.02704  0.88082  1.0000
  I   I258      1.0  0.01361  0.73766  0.28600  1.0000
  I   I259      1.0  0.59656  0.41612  0.98133  1.0000
  I   I260      1.0  0.97121  0.50721  0.94890  1.0000
  I   I261      1.0  0.38305  0.02505  0.49338  1.0000
  I   I262      1.0  0.69486  0.75282  0.69667  1.0000
  I   I263      1.0  0.56651  0.97181  0.55812  1.0000
  I   I264      1.0  0.29435  0.75677  0.75339  1.0000
  I   I265      1.0  0.56589  0.84237  0.70430  1.0000
  I   I266      1.0  0.38912  0.82344  0.49051  1.0000
  I   I267      1.0  0.84702  0.05936  0.63258  1.0000
  I   I268      1.0  0.65184  0.52205  0.68540  1.0000
  I   I269      1.0  0.99243  0.85331  0.95163  1.0000
  I   I270      1.0  0.29868  0.10364  0.22351  1.0000
  I   I271      1.0  0.07931  0.83228  0.58319  1.0000
  I   I272      1.0  0.82976  0.33381  0.04618  1.0000
  I   I273      1.0  0.06078  0.89175  0.21724  1.0000
  I   I274      1.0  0.44790  0.49211  0.84801  1.0000
  I   I275      1.0  0.62778  0.63559  0.97176  1.0000
  I   I276      1.0  0.78194  0.90815  0.88083  1.0000
  I   I277      1.0  0.15182  0.45425  0.38412  1.0000
  I   I278      1.0  0.57275  0.32698  0.12435  1.0000
  I   I279      1.0  0.92972  0.54732  0.30559  1.0000
  I   I280      1.0  0.56214  0.68615  0.31349  1.0000
  I   I281      1.0  0.51718  0.71296  0.67337  1.0000
  I   I282      1.0  0.87493  0.48868  0.37230  1.0000
  I   I283      1.0  0.59088  0.19641  0.52353  1.0000
  I   I284      1.0  0.94989  0.40264  0.52506  1.0000
  I   I285      1.0  0.39741  0.59298  0.69883  1.0000
  I   I286      1.0  0.48891  0.40732  0.42802  1.0000
  I   I287      1.0  0.26704  0.48105  0.21088  1.0000
  I   I288      1.0  0.63464  0.20757  0.70938  1.0000
  I   I289      1.0  0.80929  0.62430  0.49601  1.0000
  I   I290      1.0  0.97749  0.35549  0.75800  1.0000
  I   I291      1.0  0.61670  0.02803  0.88249  1.0000
  I   I292      1.0  0.97862  0.08807  0.15715  1.0000
  I   I293      1.0  0.45051  0.68453  0.01918  1.0000
  I   I294      1.0  0.09113  0.51135  0.73879  1.0000
  I   I295      1.0  0.90715  0.30002  0.56084  1.0000
  I   I296      1.0  0.30412  0.50852  0.77130  1.0000
  I   I297      1.0  0.23815  0.93461  0.05919  1.0000
  I   I298      1.0  0.64265  0.17508  0.30035  1.0000
  I   I299      1.0  0.78412  0.06373  0.12158  1.0000
  I   I300      1.0  0.16191  0.55574  0.51873  1.0000
  I   I301      1.0  0.65396  0.05582  0.60849  1.0000
  I   I302      1.0  0.20072  0.06161  0.05529  1.0000
  I   I303      1.0  0.22848  0.32675  0.00050  1.0000
  I   I304      1.0  0.04528  0.67070  0.28760  1.0000
  I   I305      1.0  0.83611  0.03944  0.19679  1.0000
  I   I306      1.0  0.54100  0.29182  0.16749  1.0000
  I   I307      1.0  0.51391  0.51569  0.93162  1.0000
  I   I308      1.0  0.28016  0.86726  0.53544  1.0000
  I   I309      1.0  0.31855  0.03479  0.50144  1.0000
  I   I310      1.0  0.64647  0.68353  0.78735  1.0000
  I   I311      1.0  0.56400  0.03665  0.72419  1.0000
  I   I312      1.0  0.09162  0.12132  0.20366  1.0000
  I   I313      1.0  0.78438  0.04635  0.48585  1.0000
  I   I314      1.0  0.61615  0.84300  0.72744  1.0000
  I   I315      1.0  0.40772  0.86322  0.27576  1.0000
  I   I316      1.0  0.27459  0.06990  0.30241  1.0000
  I   I317      1.0  0.69116  0.50633  0.60893  1.0000
  I   I318      1.0  0.86182  0.94604  0.97390  1.0000
  I   I319      1.0  0.67774  0.29381  0.48457  1.0000
  I   I320      1.0  0.76667  0.15777  0.05022  1.0000
  I   I321      1.0  0.82589  0.39446  0.05220  1.0000
  I   I322      1.0  0.40394  0.53897  0.91821  1.0000
  I   I323      1.0  0.68129  0.57047  0.99652  1.0000
  I   I324      1.0  0.75133  0.96440  0.81357  1.0000
  I   I325      1.0  0.06753  0.50550  0.40206  1.0000
  I   I326      1.0  0.60003  0.27155  0.22625  1.0000
  I   I327      1.0  0.90812  0.59654  0.22511  1.0000
  I   I328      1.0  0.30183  0.28237  0.03977  1.0000
  I   I329      1.0  0.44406  0.75615  0.61116  1.0000
  I   I330      1.0  0.86607  0.45353  0.27128  1.0000
  I   I331      1.0  0.42079  0.53066  0.71668  1.0000
  I   I332      1.0  0.55320  0.24218  0.47497  1.0000
  I   I333      1.0  0.83805  0.40362  0.60013  1.0000
  I   I334      1.0  0.67161  0.24385  0.66860  1.0000
  I   I335      1.0  0.52555  0.47719  0.43495  1.0000
  I   I336      1.0  0.19309  0.51973  0.17874  1.0000
  I   I337      1.0  0.12984  0.72602  0.20843  1.0000
  I   I338      1.0  0.03266  0.28543  0.76305  1.0000
  I   I339      1.0  0.58894  0.99501  0.83759  1.0000
  I   I340      1.0  0.90520  0.05656  0.06045  1.0000
  I   I341      1.0  0.74005  0.76375  0.46127  1.0000
  I   I342      1.0  0.02739  0.58027  0.80268  1.0000
  I   I343      1.0  0.84864  0.28324  0.35636  1.0000
  I   I344      1.0  0.29973  0.47996  0.64374  1.0000
  I   I345      1.0  0.31751  0.82524  0.95026  1.0000
  I   I346      1.0  0.55803  0.17272  0.45240  1.0000
  I   I347      1.0  0.14534  0.33329  0.87856  1.0000
  I   I348      1.0  0.15311  0.60283  0.43819  1.0000
  I   I349      1.0  0.59398  0.06703  0.64204  1.0000
  I   I350      1.0  0.17361  0.02923  0.83221  1.0000
  I   I351      1.0  0.04038  0.13116  0.41149  1.0000
  I   I352      1.0  0.00934  0.76105  0.08244  1.0000
  I   I353      1.0  0.98386  0.53641  0.71061  1.0000
  I   I354      1.0  0.55821  0.21975  0.08391  1.0000
  I   I355      1.0  0.61685  0.45049  0.06792  1.0000
  I   I356      1.0  0.97052  0.49457  0.07436  1.0000
  I   I357      1.0  0.44070  0.93150  0.94695  1.0000
  I   I358      1.0  0.35865  0.72260  0.78369  1.0000
  I   I359      1.0  0.50759  0.98572  0.57296  1.0000
  I   I360      1.0  0.03701  0.13576  0.27520  1.0000
  I   I361      1.0  0.76478  0.06853  0.57866  1.0000
  I   I362      1.0  0.66243  0.85844  0.79876  1.0000
  I   I363      1.0  0.33258  0.86373  0.44770  1.0000
  I   I364      1.0  0.35303  0.10111  0.25666  1.0000
  I   I365      1.0  0.64377  0.56642  0.61439  1.0000
  I   I366      1.0  0.94070  0.84247  0.95087  1.0000
  I   I367      1.0  0.64824  0.34813  0.56377  1.0000
  I   I368      1.0  0.74741  0.17506  0.17474  1.0000
  I   I369      1.0  0.76876  0.37837  0.08862  1.0000
  I   I370      1.0  0.40000  0.48427  0.93771  1.0000
  I   I371      1.0  0.63516  0.63809  0.09761  1.0000
  I   I372      1.0  0.71824  0.99331  0.87626  1.0000
  I   I373      1.0  0.10213  0.46784  0.27179  1.0000
  I   I374      1.0  0.58076  0.34224  0.01543  1.0000
  I   I375      1.0  0.91457  0.55145  0.15240  1.0000
  I   I376      1.0  0.61045  0.61464  0.35545  1.0000
  I   I377      1.0  0.49381  0.70805  0.56058  1.0000
  I   I378      1.0  0.91450  0.48417  0.28208  1.0000
  I   I379      1.0  0.32980  0.53304  0.64010  1.0000
  I   I380      1.0  0.08698  0.73726  0.86868  1.0000
  I   I381      1.0  0.88863  0.45863  0.50396  1.0000
  I   I382      1.0  0.61742  0.28412  0.68510  1.0000
  I   I383      1.0  0.54237  0.41127  0.39025  1.0000
  I   I384      1.0  0.26169  0.50439  0.10649  1.0000
