data_image0
_chemical_formula_structural       Ti96I384
_chemical_formula_sum              "Ti96 I384"
_cell_length_a       47.3483
_cell_length_b       46.9196
_cell_length_c       23.0736
_cell_angle_alpha    88.7757
_cell_angle_beta     88.7757
_cell_angle_gamma    62.1586

_space_group_name_H-M_alt    "P 1"
_space_group_IT_number       1

loop_
  _space_group_symop_operation_xyz
  'x, y, z'

loop_
  _atom_site_type_symbol
  _atom_site_label
  _atom_site_symmetry_multiplicity
  _atom_site_fract_x
  _atom_site_fract_y
  _atom_site_fract_z
  _atom_site_occupancy
  Ti  Ti1       1.0  0.41681  0.96945  0.50128  1.0000
  Ti  Ti2       1.0  0.22130  0.00531  0.98794  1.0000
  Ti  Ti3       1.0  0.32751  0.97879  0.21895  1.0000
  Ti  Ti4       1.0  0.23084  0.18099  0.29419  1.0000
  Ti  Ti5       1.0  0.16523  0.26916  0.76850  1.0000
  Ti  Ti6       1.0  0.18200  0.21643  0.06446  1.0000
  Ti  Ti7       1.0  0.03277  0.60877  0.43033  1.0000
  Ti  Ti8       1.0  0.92200  0.77445  0.73743  1.0000
  Ti  Ti9       1.0  0.95843  0.74841  0.21094  1.0000
  Ti  Ti10      1.0  0.04449  0.87142  0.23240  1.0000
  Ti  Ti11      1.0  0.13615  0.87922  0.61951  1.0000
  Ti  Ti12      1.0  0.16550  0.74528  0.84553  1.0000
  Ti  Ti13      1.0  0.36962  0.30762  0.15399  1.0000
  Ti  Ti14      1.0  0.45795  0.11188  0.57398  1.0000
  Ti  Ti15      1.0  0.36574  0.20436  0.98045  1.0000
  Ti  Ti16      1.0  0.33312  0.53615  0.01571  1.0000
  Ti  Ti17      1.0  0.18965  0.51621  0.23009  1.0000
  Ti  Ti18      1.0  0.40768  0.46997  0.71418  1.0000
  Ti  Ti19      1.0  0.33202  0.78483  0.24413  1.0000
  Ti  Ti20      1.0  0.43376  0.64252  0.83456  1.0000
  Ti  Ti21      1.0  0.24557  0.73789  0.39934  1.0000
  Ti  Ti22      1.0  0.34946  0.85949  0.73943  1.0000
  Ti  Ti23      1.0  0.49247  0.83564  0.03547  1.0000
  Ti  Ti24      1.0  0.45350  0.76501  0.56046  1.0000
  Ti  Ti25      1.0  0.61024  0.21690  0.49869  1.0000
  Ti  Ti26      1.0  0.59959  0.22238  0.87393  1.0000
  Ti  Ti27      1.0  0.59073  0.20255  0.18092  1.0000
  Ti  Ti28      1.0  0.65453  0.37883  0.21183  1.0000
  Ti  Ti29      1.0  0.68129  0.44217  0.56406  1.0000
  Ti  Ti30      1.0  0.66486  0.41215  0.90753  1.0000
  Ti  Ti31      1.0  0.63101  0.58990  0.26507  1.0000
  Ti  Ti32      1.0  0.77582  0.55076  0.66275  1.0000
  Ti  Ti33      1.0  0.70599  0.55756  0.98281  1.0000
  Ti  Ti34      1.0  0.82568  0.66951  0.04293  1.0000
  Ti  Ti35      1.0  0.77545  0.80758  0.28748  1.0000
  Ti  Ti36      1.0  0.72419  0.75284  0.74725  1.0000
  Ti  Ti37      1.0  0.82147  0.14537  0.01452  1.0000
  Ti  Ti38      1.0  0.83193  0.12760  0.36540  1.0000
  Ti  Ti39      1.0  0.83425  0.14960  0.70028  1.0000
  Ti  Ti40      1.0  0.96381  0.33400  0.10709  1.0000
  Ti  Ti41      1.0  0.98543  0.29917  0.42738  1.0000
  Ti  Ti42      1.0  0.06596  0.07324  0.55865  1.0000
  Ti  Ti43      1.0  0.91306  0.47936  0.28221  1.0000
  Ti  Ti44      1.0  0.98612  0.44424  0.59287  1.0000
  Ti  Ti45      1.0  0.99980  0.50534  0.90545  1.0000
  Ti  Ti46      1.0  0.77234  0.98960  0.35530  1.0000
  Ti  Ti47      1.0  0.75433  0.02752  0.67737  1.0000
  Ti  Ti48      1.0  0.67671  0.03425  0.96066  1.0000
  Ti  Ti49      1.0  0.33878  0.00220  0.40211  1.0000
  Ti  Ti50      1.0  0.15687  0.05707  0.86794  1.0000
  Ti  Ti51      1.0  0.23183  0.00488  0.17284  1.0000
  Ti  Ti52      1.0  0.13605  0.21990  0.23876  1.0000
  Ti  Ti53      1.0  0.12956  0.28141  0.59358  1.0000
  Ti  Ti54      1.0  0.10331  0.26759  0.92186  1.0000
  Ti  Ti55      1.0  0.95926  0.66519  0.30922  1.0000
  Ti  Ti56      1.0  0.95440  0.83224  0.75535  1.0000
  Ti  Ti57      1.0  0.90089  0.79087  0.08583  1.0000
  Ti  Ti58      1.0  0.99519  0.96101  0.17521  1.0000
  Ti  Ti59      1.0  0.99076  0.85771  0.38737  1.0000
  Ti  Ti60      1.0  0.15033  0.82546  0.74412  1.0000
  Ti  Ti61      1.0  0.33207  0.31246  0.97267  1.0000
  Ti  Ti62      1.0  0.33810  0.34269  0.31304  1.0000
  Ti  Ti63      1.0  0.40329  0.20329  0.59347  1.0000
  Ti  Ti64      1.0  0.36762  0.48022  0.86836  1.0000
  Ti  Ti65      1.0  0.25902  0.48061  0.09418  1.0000
  Ti  Ti66      1.0  0.15710  0.45998  0.30288  1.0000
  Ti  Ti67      1.0  0.24044  0.79305  0.24460  1.0000
  Ti  Ti68      1.0  0.49858  0.58019  0.91384  1.0000
  Ti  Ti69      1.0  0.22574  0.67208  0.40542  1.0000
  Ti  Ti70      1.0  0.35075  0.81795  0.58584  1.0000
  Ti  Ti71      1.0  0.43442  0.89980  0.91674  1.0000
  Ti  Ti72      1.0  0.52170  0.79309  0.18147  1.0000
  Ti  Ti73      1.0  0.54228  0.20777  0.35726  1.0000
  Ti  Ti74      1.0  0.57119  0.21900  0.69112  1.0000
  Ti  Ti75      1.0  0.53581  0.22458  0.00901  1.0000
  Ti  Ti76      1.0  0.60788  0.38102  0.01704  1.0000
  Ti  Ti77      1.0  0.55700  0.41526  0.25802  1.0000
  Ti  Ti78      1.0  0.61910  0.45255  0.71835  1.0000
  Ti  Ti79      1.0  0.62393  0.62410  0.08957  1.0000
  Ti  Ti80      1.0  0.60547  0.64466  0.42089  1.0000
  Ti  Ti81      1.0  0.70147  0.57577  0.79418  1.0000
  Ti  Ti82      1.0  0.77096  0.72235  0.91883  1.0000
  Ti  Ti83      1.0  0.68449  0.83324  0.26718  1.0000
  Ti  Ti84      1.0  0.66029  0.82742  0.66008  1.0000
  Ti  Ti85      1.0  0.79224  0.20204  0.85337  1.0000
  Ti  Ti86      1.0  0.79987  0.19128  0.21139  1.0000
  Ti  Ti87      1.0  0.81085  0.19164  0.52536  1.0000
  Ti  Ti88      1.0  0.87576  0.33944  0.08378  1.0000
  Ti  Ti89      1.0  0.89526  0.32776  0.44650  1.0000
  Ti  Ti90      1.0  0.01376  0.06323  0.40114  1.0000
  Ti  Ti91      1.0  0.03619  0.56852  0.96127  1.0000
  Ti  Ti92      1.0  0.93571  0.49305  0.43130  1.0000
  Ti  Ti93      1.0  0.00194  0.51417  0.71652  1.0000
  Ti  Ti94      1.0  0.64901  0.01346  0.11348  1.0000
  Ti  Ti95      1.0  0.76943  0.96672  0.51537  1.0000
  Ti  Ti96      1.0  0.70404  0.98883  0.79379  1.0000
  I   I1        1.0  0.18045  0.02369  0.77670  1.0000
  I   I2        1.0  0.21318  0.97372  0.08542  1.0000
  I   I3        1.0  0.32084  0.95774  0.33472  1.0000
  I   I4        1.0  0.15276  0.23346  0.52213  1.0000
  I   I5        1.0  0.11537  0.24702  0.81088  1.0000
  I   I6        1.0  0.14071  0.19775  0.10784  1.0000
  I   I7        1.0  0.97525  0.83010  0.86108  1.0000
  I   I8        1.0  0.90348  0.81618  0.82034  1.0000
  I   I9        1.0  0.99443  0.67697  0.21543  1.0000
  I   I10       1.0  0.04999  0.85794  0.35137  1.0000
  I   I11       1.0  0.19640  0.83401  0.68046  1.0000
  I   I12       1.0  0.93965  0.98930  0.12183  1.0000
  I   I13       1.0  0.30964  0.33247  0.22088  1.0000
  I   I14       1.0  0.39535  0.15096  0.54727  1.0000
  I   I15       1.0  0.31088  0.26045  0.93626  1.0000
  I   I16       1.0  0.32357  0.45028  0.07925  1.0000
  I   I17       1.0  0.20555  0.44773  0.22735  1.0000
  I   I18       1.0  0.41865  0.42115  0.84974  1.0000
  I   I19       1.0  0.45111  0.65965  0.92672  1.0000
  I   I20       1.0  0.17805  0.67084  0.34142  1.0000
  I   I21       1.0  0.21301  0.80067  0.35887  1.0000
  I   I22       1.0  0.37628  0.92472  0.93959  1.0000
  I   I23       1.0  0.44404  0.90168  0.04763  1.0000
  I   I24       1.0  0.32442  0.83738  0.48850  1.0000
  I   I25       1.0  0.59661  0.17864  0.59164  1.0000
  I   I26       1.0  0.56288  0.19272  0.91408  1.0000
  I   I27       1.0  0.56919  0.16509  0.25691  1.0000
  I   I28       1.0  0.61903  0.35350  0.26221  1.0000
  I   I29       1.0  0.64628  0.41240  0.60670  1.0000
  I   I30       1.0  0.63293  0.36791  0.89918  1.0000
  I   I31       1.0  0.57120  0.63629  0.31813  1.0000
  I   I32       1.0  0.72152  0.53845  0.68843  1.0000
  I   I33       1.0  0.64299  0.58191  0.98937  1.0000
  I   I34       1.0  0.65384  0.82315  0.18497  1.0000
  I   I35       1.0  0.65948  0.81919  0.55028  1.0000
  I   I36       1.0  0.73273  0.70898  0.84493  1.0000
  I   I37       1.0  0.77300  0.18207  0.10415  1.0000
  I   I38       1.0  0.77962  0.18396  0.43420  1.0000
  I   I39       1.0  0.77312  0.18696  0.73630  1.0000
  I   I40       1.0  0.85858  0.37408  0.38254  1.0000
  I   I41       1.0  0.04222  0.03778  0.30161  1.0000
  I   I42       1.0  0.90295  0.38431  0.09962  1.0000
  I   I43       1.0  0.87712  0.50519  0.39047  1.0000
  I   I44       1.0  0.95759  0.51080  0.63462  1.0000
  I   I45       1.0  0.97639  0.57447  0.92878  1.0000
  I   I46       1.0  0.81961  0.95071  0.43570  1.0000
  I   I47       1.0  0.76701  0.96593  0.74426  1.0000
  I   I48       1.0  0.66460  0.98167  0.99627  1.0000
  I   I49       1.0  0.36204  0.04176  0.41305  1.0000
  I   I50       1.0  0.15994  0.05785  0.99370  1.0000
  I   I51       1.0  0.25953  0.03756  0.22250  1.0000
  I   I52       1.0  0.15760  0.23346  0.33347  1.0000
  I   I53       1.0  0.11380  0.31640  0.69918  1.0000
  I   I54       1.0  0.12222  0.27681  0.02468  1.0000
  I   I55       1.0  0.93260  0.65303  0.40335  1.0000
  I   I56       1.0  0.92135  0.82250  0.65979  1.0000
  I   I57       1.0  0.90851  0.73485  0.16364  1.0000
  I   I58       1.0  0.10063  0.82022  0.21484  1.0000
  I   I59       1.0  0.98773  0.89106  0.47427  1.0000
  I   I60       1.0  0.11456  0.79319  0.77868  1.0000
  I   I61       1.0  0.35688  0.34671  0.03626  1.0000
  I   I62       1.0  0.38269  0.33876  0.38955  1.0000
  I   I63       1.0  0.41190  0.24745  0.64868  1.0000
  I   I64       1.0  0.32085  0.54234  0.89944  1.0000
  I   I65       1.0  0.18705  0.52744  0.12404  1.0000
  I   I66       1.0  0.12701  0.47160  0.40675  1.0000
  I   I67       1.0  0.29177  0.77923  0.17001  1.0000
  I   I68       1.0  0.37617  0.68707  0.81163  1.0000
  I   I69       1.0  0.20952  0.72058  0.31620  1.0000
  I   I70       1.0  0.38733  0.79224  0.70360  1.0000
  I   I71       1.0  0.51098  0.84906  0.93806  1.0000
  I   I72       1.0  0.51676  0.74057  0.20545  1.0000
  I   I73       1.0  0.54823  0.23655  0.44840  1.0000
  I   I74       1.0  0.55266  0.26664  0.78180  1.0000
  I   I75       1.0  0.52959  0.23158  0.13057  1.0000
  I   I76       1.0  0.58947  0.41000  0.12878  1.0000
  I   I77       1.0  0.53007  0.38307  0.21117  1.0000
  I   I78       1.0  0.62312  0.46469  0.83570  1.0000
  I   I79       1.0  0.63339  0.64118  0.19442  1.0000
  I   I80       1.0  0.63847  0.63386  0.51431  1.0000
  I   I81       1.0  0.69794  0.60981  0.89153  1.0000
  I   I82       1.0  0.81217  0.73381  0.00037  1.0000
  I   I83       1.0  0.72934  0.85136  0.21107  1.0000
  I   I84       1.0  0.68029  0.81910  0.77205  1.0000
  I   I85       1.0  0.82243  0.19599  0.95707  1.0000
  I   I86       1.0  0.83128  0.18164  0.30581  1.0000
  I   I87       1.0  0.83124  0.21110  0.64141  1.0000
  I   I88       1.0  0.86160  0.29789  0.03395  1.0000
  I   I89       1.0  0.94597  0.27501  0.50182  1.0000
  I   I90       1.0  0.00025  0.08175  0.51496  1.0000
  I   I91       1.0  0.02568  0.60244  0.06113  1.0000
  I   I92       1.0  0.99137  0.48110  0.49091  1.0000
  I   I93       1.0  0.04083  0.50977  0.80869  1.0000
  I   I94       1.0  0.58535  0.02903  0.12346  1.0000
  I   I95       1.0  0.71867  0.00787  0.59366  1.0000
  I   I96       1.0  0.64813  0.03781  0.85236  1.0000
  I   I97       1.0  0.33597  0.02216  0.28310  1.0000
  I   I98       1.0  0.40566  0.98208  0.61495  1.0000
  I   I99       1.0  0.24096  0.03445  0.06778  1.0000
  I   I100      1.0  0.19698  0.21625  0.17704  1.0000
  I   I101      1.0  0.23636  0.15120  0.39801  1.0000
  I   I102      1.0  0.13584  0.30985  0.86319  1.0000
  I   I103      1.0  0.93406  0.72948  0.32371  1.0000
  I   I104      1.0  0.02787  0.55790  0.46588  1.0000
  I   I105      1.0  0.83804  0.81731  0.09123  1.0000
  I   I106      1.0  0.12606  0.76359  0.93768  1.0000
  I   I107      1.0  0.99777  0.84709  0.25604  1.0000
  I   I108      1.0  0.09231  0.88510  0.74692  1.0000
  I   I109      1.0  0.38754  0.25492  0.95622  1.0000
  I   I110      1.0  0.36916  0.35840  0.21654  1.0000
  I   I111      1.0  0.42663  0.15756  0.67802  1.0000
  I   I112      1.0  0.40536  0.51313  0.85064  1.0000
  I   I113      1.0  0.27662  0.54031  0.05287  1.0000
  I   I114      1.0  0.12600  0.53077  0.23941  1.0000
  I   I115      1.0  0.28378  0.73064  0.31209  1.0000
  I   I116      1.0  0.36689  0.72240  0.21981  1.0000
  I   I117      1.0  0.46735  0.58029  0.78356  1.0000
  I   I118      1.0  0.39019  0.75661  0.55852  1.0000
  I   I119      1.0  0.35137  0.91398  0.72438  1.0000
  I   I120      1.0  0.51939  0.85784  0.12140  1.0000
  I   I121      1.0  0.56604  0.24158  0.27781  1.0000
  I   I122      1.0  0.59348  0.25221  0.60879  1.0000
  I   I123      1.0  0.57146  0.25667  0.96888  1.0000
  I   I124      1.0  0.62329  0.43298  0.99846  1.0000
  I   I125      1.0  0.60652  0.43088  0.28137  1.0000
  I   I126      1.0  0.66293  0.47081  0.68012  1.0000
  I   I127      1.0  0.69686  0.57612  0.09427  1.0000
  I   I128      1.0  0.66236  0.60737  0.34539  1.0000
  I   I129      1.0  0.77035  0.55328  0.79082  1.0000
  I   I130      1.0  0.78110  0.74767  0.81329  1.0000
  I   I131      1.0  0.81495  0.68331  0.14886  1.0000
  I   I132      1.0  0.74049  0.83771  0.38086  1.0000
  I   I133      1.0  0.86276  0.14495  0.80359  1.0000
  I   I134      1.0  0.85243  0.15764  0.14386  1.0000
  I   I135      1.0  0.85782  0.12426  0.46938  1.0000
  I   I136      1.0  0.12586  0.05681  0.58531  1.0000
  I   I137      1.0  0.02087  0.31184  0.05641  1.0000
  I   I138      1.0  0.02842  0.23728  0.41824  1.0000
  I   I139      1.0  0.03646  0.51021  0.00308  1.0000
  I   I140      1.0  0.96413  0.43146  0.34972  1.0000
  I   I141      1.0  0.02883  0.44505  0.66369  1.0000
  I   I142      1.0  0.62066  0.06581  0.01791  1.0000
  I   I143      1.0  0.74236  0.03095  0.45034  1.0000
  I   I144      1.0  0.69571  0.04670  0.72987  1.0000
  I   I145      1.0  0.41765  0.94770  0.38692  1.0000
  I   I146      1.0  0.19648  0.97970  0.92395  1.0000
  I   I147      1.0  0.29503  0.95224  0.17040  1.0000
  I   I148      1.0  0.19210  0.15808  0.24407  1.0000
  I   I149      1.0  0.18523  0.23440  0.67061  1.0000
  I   I150      1.0  0.16011  0.19848  0.95045  1.0000
  I   I151      1.0  0.01310  0.66586  0.37783  1.0000
  I   I152      1.0  0.86605  0.77837  0.70236  1.0000
  I   I153      1.0  0.97663  0.74275  0.10205  1.0000
  I   I154      1.0  0.07041  0.91322  0.24516  1.0000
  I   I155      1.0  0.08142  0.90467  0.57286  1.0000
  I   I156      1.0  0.17596  0.84419  0.82699  1.0000
  I   I157      1.0  0.34426  0.28314  0.08924  1.0000
  I   I158      1.0  0.47798  0.08172  0.47097  1.0000
  I   I159      1.0  0.36790  0.16210  0.90133  1.0000
  I   I160      1.0  0.38406  0.46729  0.98744  1.0000
  I   I161      1.0  0.26357  0.48939  0.21519  1.0000
  I   I162      1.0  0.39111  0.43283  0.65869  1.0000
  I   I163      1.0  0.27520  0.82044  0.31215  1.0000
  I   I164      1.0  0.52351  0.51852  0.92593  1.0000
  I   I165      1.0  0.18849  0.74152  0.46737  1.0000
  I   I166      1.0  0.30068  0.82146  0.64718  1.0000
  I   I167      1.0  0.44482  0.83536  0.96605  1.0000
  I   I168      1.0  0.47793  0.75679  0.45680  1.0000
  I   I169      1.0  0.62251  0.17012  0.41068  1.0000
  I   I170      1.0  0.61977  0.19786  0.76451  1.0000
  I   I171      1.0  0.60133  0.16891  0.07522  1.0000
  I   I172      1.0  0.65827  0.35094  0.10546  1.0000
  I   I173      1.0  0.73564  0.44503  0.55662  1.0000
  I   I174      1.0  0.67447  0.39911  0.79268  1.0000
  I   I175      1.0  0.60549  0.58394  0.15950  1.0000
  I   I176      1.0  0.75066  0.56469  0.56069  1.0000
  I   I177      1.0  0.69780  0.52835  0.87404  1.0000
  I   I178      1.0  0.82686  0.66311  0.90052  1.0000
  I   I179      1.0  0.73821  0.77086  0.26550  1.0000
  I   I180      1.0  0.67625  0.74325  0.70284  1.0000
  I   I181      1.0  0.80012  0.13777  0.90310  1.0000
  I   I182      1.0  0.79850  0.13144  0.26783  1.0000
  I   I183      1.0  0.80006  0.14503  0.58962  1.0000
  I   I184      1.0  0.93266  0.31873  0.01661  1.0000
  I   I185      1.0  0.94756  0.30979  0.33737  1.0000
  I   I186      1.0  0.06948  0.06503  0.43882  1.0000
  I   I187      1.0  0.86991  0.53144  0.23234  1.0000
  I   I188      1.0  0.92644  0.44891  0.50511  1.0000
  I   I189      1.0  0.96270  0.50102  0.81147  1.0000
  I   I190      1.0  0.78218  0.94049  0.29218  1.0000
  I   I191      1.0  0.80122  0.98170  0.61358  1.0000
  I   I192      1.0  0.73375  0.99385  0.89696  1.0000
  I   I193      1.0  0.44909  0.99873  0.46217  1.0000
  I   I194      1.0  0.21960  0.04511  0.89226  1.0000
  I   I195      1.0  0.33539  0.01063  0.12465  1.0000
  I   I196      1.0  0.23763  0.23358  0.30952  1.0000
  I   I197      1.0  0.18837  0.31343  0.75829  1.0000
  I   I198      1.0  0.20901  0.25482  0.03322  1.0000
  I   I199      1.0  0.03470  0.62831  0.53223  1.0000
  I   I200      1.0  0.98953  0.75707  0.74348  1.0000
  I   I201      1.0  0.91017  0.80492  0.21800  1.0000
  I   I202      1.0  0.03056  0.90110  0.12544  1.0000
  I   I203      1.0  0.13079  0.93319  0.64438  1.0000
  I   I204      1.0  0.22490  0.72528  0.88019  1.0000
  I   I205      1.0  0.42584  0.28128  0.10694  1.0000
  I   I206      1.0  0.50925  0.10323  0.62193  1.0000
  I   I207      1.0  0.42332  0.17143  0.02753  1.0000
  I   I208      1.0  0.32369  0.59423  0.02108  1.0000
  I   I209      1.0  0.18633  0.57028  0.26767  1.0000
  I   I210      1.0  0.41228  0.50880  0.63919  1.0000
  I   I211      1.0  0.35933  0.78639  0.33942  1.0000
  I   I212      1.0  0.54236  0.58787  0.85670  1.0000
  I   I213      1.0  0.28643  0.66923  0.41314  1.0000
  I   I214      1.0  0.37304  0.84293  0.84530  1.0000
  I   I215      1.0  0.54175  0.77522  0.05623  1.0000
  I   I216      1.0  0.48589  0.78713  0.60994  1.0000
  I   I217      1.0  0.61887  0.25833  0.43766  1.0000
  I   I218      1.0  0.61735  0.26807  0.84430  1.0000
  I   I219      1.0  0.61117  0.24523  0.16460  1.0000
  I   I220      1.0  0.67768  0.41494  0.17017  1.0000
  I   I221      1.0  0.70763  0.38766  0.51049  1.0000
  I   I222      1.0  0.70818  0.42848  0.93927  1.0000
  I   I223      1.0  0.68735  0.54319  0.24149  1.0000
  I   I224      1.0  0.80895  0.58256  0.65683  1.0000
  I   I225      1.0  0.76421  0.55628  0.99884  1.0000
  I   I226      1.0  0.88630  0.64711  0.05785  1.0000
  I   I227      1.0  0.81048  0.83818  0.27767  1.0000
  I   I228      1.0  0.73053  0.78418  0.65777  1.0000
  I   I229      1.0  0.88180  0.10634  0.98758  1.0000
  I   I230      1.0  0.88630  0.08463  0.32510  1.0000
  I   I231      1.0  0.88235  0.13728  0.63084  1.0000
  I   I232      1.0  0.96805  0.28084  0.15590  1.0000
  I   I233      1.0  0.94084  0.35893  0.48385  1.0000
  I   I234      1.0  0.05202  0.05438  0.65129  1.0000
  I   I235      1.0  0.94333  0.47435  0.19167  1.0000
  I   I236      1.0  0.01993  0.38696  0.54416  1.0000
  I   I237      1.0  0.03749  0.44490  0.93261  1.0000
  I   I238      1.0  0.72966  0.03470  0.28979  1.0000
  I   I239      1.0  0.74552  0.08190  0.61980  1.0000
  I   I240      1.0  0.69055  0.07895  0.94481  1.0000
  I   I241      1.0  0.46944  0.91555  0.52917  1.0000
  I   I242      1.0  0.28282  0.95858  0.97733  1.0000
  I   I243      1.0  0.38512  0.92654  0.21927  1.0000
  I   I244      1.0  0.28629  0.15302  0.25751  1.0000
  I   I245      1.0  0.20790  0.23489  0.83566  1.0000
  I   I246      1.0  0.23048  0.15613  0.03714  1.0000
  I   I247      1.0  0.09096  0.59503  0.39880  1.0000
  I   I248      1.0  0.93730  0.72043  0.80769  1.0000
  I   I249      1.0  0.99889  0.75259  0.29511  1.0000
  I   I250      1.0  0.98998  0.92866  0.27734  1.0000
  I   I251      1.0  0.16728  0.86982  0.52576  1.0000
  I   I252      1.0  0.16205  0.69381  0.82315  1.0000
  I   I253      1.0  0.39137  0.26746  0.24524  1.0000
  I   I254      1.0  0.44644  0.06751  0.62248  1.0000
  I   I255      1.0  0.32786  0.20095  0.06154  1.0000
  I   I256      1.0  0.36694  0.51064  0.11836  1.0000
  I   I257      1.0  0.18663  0.49450  0.35098  1.0000
  I   I258      1.0  0.46667  0.43730  0.73378  1.0000
  I   I259      1.0  0.35958  0.81417  0.16937  1.0000
  I   I260      1.0  0.45805  0.66862  0.75663  1.0000
  I   I261      1.0  0.27424  0.74565  0.49289  1.0000
  I   I262      1.0  0.29356  0.88014  0.77654  1.0000
  I   I263      1.0  0.46508  0.80708  0.11004  1.0000
  I   I264      1.0  0.47837  0.70403  0.60175  1.0000
  I   I265      1.0  0.66954  0.18403  0.51775  1.0000
  I   I266      1.0  0.64829  0.18469  0.93613  1.0000
  I   I267      1.0  0.64405  0.16039  0.21587  1.0000
  I   I268      1.0  0.70436  0.33307  0.25693  1.0000
  I   I269      1.0  0.63826  0.49342  0.50681  1.0000
  I   I270      1.0  0.70680  0.35366  0.95886  1.0000
  I   I271      1.0  0.61837  0.55577  0.35294  1.0000
  I   I272      1.0  0.82326  0.49470  0.67306  1.0000
  I   I273      1.0  0.72924  0.49795  0.01895  1.0000
  I   I274      1.0  0.83051  0.61109  0.06061  1.0000
  I   I275      1.0  0.82406  0.75895  0.33663  1.0000
  I   I276      1.0  0.76705  0.69752  0.70250  1.0000
  I   I277      1.0  0.81683  0.09550  0.05633  1.0000
  I   I278      1.0  0.80479  0.09167  0.40380  1.0000
  I   I279      1.0  0.83744  0.09294  0.71189  1.0000
  I   I280      1.0  0.97426  0.36300  0.19636  1.0000
  I   I281      1.0  0.03106  0.31396  0.40698  1.0000
  I   I282      1.0  0.04238  0.13426  0.55141  1.0000
  I   I283      1.0  0.90332  0.42966  0.26095  1.0000
  I   I284      1.0  0.96219  0.42492  0.67809  1.0000
  I   I285      1.0  0.95837  0.50320  0.97514  1.0000
  I   I286      1.0  0.82046  0.99325  0.30620  1.0000
  I   I287      1.0  0.77092  0.04875  0.77215  1.0000
  I   I288      1.0  0.71151  0.01089  0.06395  1.0000
  I   I289      1.0  0.35029  0.97865  0.50376  1.0000
  I   I290      1.0  0.09977  0.06590  0.89517  1.0000
  I   I291      1.0  0.22917  0.98218  0.27352  1.0000
  I   I292      1.0  0.09333  0.20417  0.27328  1.0000
  I   I293      1.0  0.07421  0.28703  0.59807  1.0000
  I   I294      1.0  0.07023  0.23894  0.93690  1.0000
  I   I295      1.0  0.01446  0.59939  0.30996  1.0000
  I   I296      1.0  0.00059  0.83589  0.69328  1.0000
  I   I297      1.0  0.91492  0.83706  0.06569  1.0000
  I   I298      1.0  0.98062  0.00232  0.26031  1.0000
  I   I299      1.0  0.01452  0.80054  0.42398  1.0000
  I   I300      1.0  0.19674  0.76316  0.73792  1.0000
  I   I301      1.0  0.26913  0.34319  0.00549  1.0000
  I   I302      1.0  0.32655  0.30604  0.37697  1.0000
  I   I303      1.0  0.34181  0.23031  0.59203  1.0000
  I   I304      1.0  0.32538  0.46137  0.88489  1.0000
  I   I305      1.0  0.26738  0.42279  0.11364  1.0000
  I   I306      1.0  0.17784  0.39766  0.31623  1.0000
  I   I307      1.0  0.19521  0.85001  0.21318  1.0000
  I   I308      1.0  0.43556  0.59560  0.92486  1.0000
  I   I309      1.0  0.24848  0.61072  0.39540  1.0000
  I   I310      1.0  0.31703  0.88538  0.61573  1.0000
  I   I311      1.0  0.45310  0.93831  0.87351  1.0000
  I   I312      1.0  0.47753  0.82517  0.25599  1.0000
  I   I313      1.0  0.52800  0.16901  0.41445  1.0000
  I   I314      1.0  0.55006  0.18142  0.74343  1.0000
  I   I315      1.0  0.50976  0.18862  0.03099  1.0000
  I   I316      1.0  0.60139  0.33132  0.03472  1.0000
  I   I317      1.0  0.51992  0.47145  0.21909  1.0000
  I   I318      1.0  0.58538  0.42393  0.74387  1.0000
  I   I319      1.0  0.56403  0.65983  0.06805  1.0000
  I   I320      1.0  0.54798  0.65317  0.46858  1.0000
  I   I321      1.0  0.64360  0.58702  0.78439  1.0000
  I   I322      1.0  0.75449  0.69119  0.00425  1.0000
  I   I323      1.0  0.66217  0.81555  0.35168  1.0000
  I   I324      1.0  0.59531  0.84882  0.65002  1.0000
  I   I325      1.0  0.73460  0.23305  0.88069  1.0000
  I   I326      1.0  0.74131  0.22114  0.25389  1.0000
  I   I327      1.0  0.76591  0.24832  0.55613  1.0000
  I   I328      1.0  0.82155  0.39022  0.07081  1.0000
  I   I329      1.0  0.87097  0.29099  0.41586  1.0000
  I   I330      1.0  0.99387  0.02011  0.42645  1.0000
  I   I331      1.0  0.04245  0.61444  0.90291  1.0000
  I   I332      1.0  0.90237  0.54210  0.49992  1.0000
  I   I333      1.0  0.96469  0.57555  0.74377  1.0000
  I   I334      1.0  0.64529  0.05207  0.18982  1.0000
  I   I335      1.0  0.80263  0.91014  0.56150  1.0000
  I   I336      1.0  0.70724  0.93652  0.83539  1.0000
  I   I337      1.0  0.27864  0.03916  0.41911  1.0000
  I   I338      1.0  0.14333  0.11802  0.85628  1.0000
  I   I339      1.0  0.17471  0.06060  0.17667  1.0000
  I   I340      1.0  0.10803  0.27733  0.19997  1.0000
  I   I341      1.0  0.13955  0.32548  0.54548  1.0000
  I   I342      1.0  0.05322  0.32198  0.89375  1.0000
  I   I343      1.0  0.92268  0.64914  0.24674  1.0000
  I   I344      1.0  0.91408  0.89205  0.75947  1.0000
  I   I345      1.0  0.90438  0.77070  0.98087  1.0000
  I   I346      1.0  0.02576  0.98644  0.11668  1.0000
  I   I347      1.0  0.93116  0.86721  0.38236  1.0000
  I   I348      1.0  0.12586  0.81927  0.64025  1.0000
  I   I349      1.0  0.32455  0.34899  0.88264  1.0000
  I   I350      1.0  0.29871  0.39818  0.35502  1.0000
  I   I351      1.0  0.45042  0.18547  0.52154  1.0000
  I   I352      1.0  0.34282  0.50471  0.75819  1.0000
  I   I353      1.0  0.23537  0.48625  0.99406  1.0000
  I   I354      1.0  0.10771  0.46233  0.24554  1.0000
  I   I355      1.0  0.21023  0.76944  0.18439  1.0000
  I   I356      1.0  0.51962  0.58868  0.01367  1.0000
  I   I357      1.0  0.23228  0.65427  0.51604  1.0000
  I   I358      1.0  0.40740  0.82889  0.53753  1.0000
  I   I359      1.0  0.44483  0.87622  0.81133  1.0000
  I   I360      1.0  0.56603  0.78272  0.24675  1.0000
  I   I361      1.0  0.48454  0.23858  0.30906  1.0000
  I   I362      1.0  0.51164  0.25495  0.64565  1.0000
  I   I363      1.0  0.48609  0.27755  0.97231  1.0000
  I   I364      1.0  0.54938  0.41604  0.98085  1.0000
  I   I365      1.0  0.53654  0.42126  0.36186  1.0000
  I   I366      1.0  0.57637  0.50979  0.68411  1.0000
  I   I367      1.0  0.64216  0.66382  0.03705  1.0000
  I   I368      1.0  0.60422  0.69724  0.38991  1.0000
  I   I369      1.0  0.69395  0.62583  0.71713  1.0000
  I   I370      1.0  0.72813  0.78364  0.94929  1.0000
  I   I371      1.0  0.64928  0.89434  0.29317  1.0000
  I   I372      1.0  0.65591  0.88481  0.65655  1.0000
  I   I373      1.0  0.79885  0.24996  0.80874  1.0000
  I   I374      1.0  0.79756  0.24743  0.18561  1.0000
  I   I375      1.0  0.85270  0.20668  0.48352  1.0000
  I   I376      1.0  0.86888  0.32296  0.18850  1.0000
  I   I377      1.0  0.86378  0.35166  0.54225  1.0000
  I   I378      1.0  0.96605  0.10194  0.34195  1.0000
  I   I379      1.0  0.09750  0.53652  0.99489  1.0000
  I   I380      1.0  0.93832  0.52383  0.33280  1.0000
  I   I381      1.0  0.03925  0.52029  0.64973  1.0000
  I   I382      1.0  0.67758  0.95695  0.16094  1.0000
  I   I383      1.0  0.73320  0.96144  0.44327  1.0000
  I   I384      1.0  0.66837  0.98526  0.71129  1.0000
