data_image0
_chemical_formula_structural       Ti96I384
_chemical_formula_sum              "Ti96 I384"
_cell_length_a       50.9215
_cell_length_b       50.7127
_cell_length_c       24.5525
_cell_angle_alpha    88.7757
_cell_angle_beta     88.7757
_cell_angle_gamma    62.1586

_space_group_name_H-M_alt    "P 1"
_space_group_IT_number       1

loop_
  _space_group_symop_operation_xyz
  'x, y, z'

loop_
  _atom_site_type_symbol
  _atom_site_label
  _atom_site_symmetry_multiplicity
  _atom_site_fract_x
  _atom_site_fract_y
  _atom_site_fract_z
  _atom_site_occupancy
  Ti  Ti1       1.0  0.35573  0.88087  0.37606  1.0000
  Ti  Ti2       1.0  0.13999  0.03543  0.92082  1.0000
  Ti  Ti3       1.0  0.31928  0.88103  0.14596  1.0000
  Ti  Ti4       1.0  0.20103  0.05643  0.53131  1.0000
  Ti  Ti5       1.0  0.09303  0.41978  0.82508  1.0000
  Ti  Ti6       1.0  0.17453  0.21189  0.77426  1.0000
  Ti  Ti7       1.0  0.93596  0.74234  0.89215  1.0000
  Ti  Ti8       1.0  0.92758  0.02436  0.51592  1.0000
  Ti  Ti9       1.0  0.94342  0.81259  0.12864  1.0000
  Ti  Ti10      1.0  0.15103  0.80951  0.02279  1.0000
  Ti  Ti11      1.0  0.06731  0.75158  0.73714  1.0000
  Ti  Ti12      1.0  0.91704  0.86640  0.63199  1.0000
  Ti  Ti13      1.0  0.34589  0.17869  0.40273  1.0000
  Ti  Ti14      1.0  0.38916  0.00338  0.79179  1.0000
  Ti  Ti15      1.0  0.32208  0.10779  0.10936  1.0000
  Ti  Ti16      1.0  0.29189  0.55474  0.98549  1.0000
  Ti  Ti17      1.0  0.19854  0.65488  0.20621  1.0000
  Ti  Ti18      1.0  0.23030  0.41999  0.52311  1.0000
  Ti  Ti19      1.0  0.43816  0.66626  0.22004  1.0000
  Ti  Ti20      1.0  0.64337  0.68513  0.63047  1.0000
  Ti  Ti21      1.0  0.37341  0.62435  0.46652  1.0000
  Ti  Ti22      1.0  0.38080  0.77616  0.78076  1.0000
  Ti  Ti23      1.0  0.60397  0.85407  0.84343  1.0000
  Ti  Ti24      1.0  0.52271  0.69750  0.95284  1.0000
  Ti  Ti25      1.0  0.45463  0.33043  0.89931  1.0000
  Ti  Ti26      1.0  0.29526  0.39030  0.04180  1.0000
  Ti  Ti27      1.0  0.60024  0.34676  0.53924  1.0000
  Ti  Ti28      1.0  0.53285  0.37325  0.16517  1.0000
  Ti  Ti29      1.0  0.57507  0.54185  0.06317  1.0000
  Ti  Ti30      1.0  0.50070  0.51982  0.82750  1.0000
  Ti  Ti31      1.0  0.91378  0.53603  0.12344  1.0000
  Ti  Ti32      1.0  0.78432  0.44561  0.68215  1.0000
  Ti  Ti33      1.0  0.85661  0.51617  0.86625  1.0000
  Ti  Ti34      1.0  0.73768  0.93949  0.09183  1.0000
  Ti  Ti35      1.0  0.60755  0.72380  0.17493  1.0000
  Ti  Ti36      1.0  0.86967  0.67881  0.59967  1.0000
  Ti  Ti37      1.0  0.75254  0.16471  0.33205  1.0000
  Ti  Ti38      1.0  0.80653  0.23475  0.11733  1.0000
  Ti  Ti39      1.0  0.76571  0.18434  0.84160  1.0000
  Ti  Ti40      1.0  0.95805  0.26014  0.96122  1.0000
  Ti  Ti41      1.0  0.94361  0.22806  0.64779  1.0000
  Ti  Ti42      1.0  0.19613  0.89075  0.61741  1.0000
  Ti  Ti43      1.0  0.10977  0.33945  0.19639  1.0000
  Ti  Ti44      1.0  0.03421  0.58910  0.51049  1.0000
  Ti  Ti45      1.0  0.12454  0.57448  0.80329  1.0000
  Ti  Ti46      1.0  0.69936  0.88970  0.46541  1.0000
  Ti  Ti47      1.0  0.65556  0.02611  0.64056  1.0000
  Ti  Ti48      1.0  0.55558  0.13656  0.99261  1.0000
  Ti  Ti49      1.0  0.36752  0.90467  0.23290  1.0000
  Ti  Ti50      1.0  0.04411  0.08737  0.91368  1.0000
  Ti  Ti51      1.0  0.22785  0.03275  0.95069  1.0000
  Ti  Ti52      1.0  0.11765  0.11773  0.47273  1.0000
  Ti  Ti53      1.0  0.09756  0.39752  0.70080  1.0000
  Ti  Ti54      1.0  0.17551  0.16662  0.93295  1.0000
  Ti  Ti55      1.0  0.89758  0.82750  0.95895  1.0000
  Ti  Ti56      1.0  0.85423  0.02703  0.48020  1.0000
  Ti  Ti57      1.0  0.94516  0.88419  0.21287  1.0000
  Ti  Ti58      1.0  0.11222  0.87714  0.93194  1.0000
  Ti  Ti59      1.0  0.23925  0.74689  0.98740  1.0000
  Ti  Ti60      1.0  0.98680  0.81255  0.70739  1.0000
  Ti  Ti61      1.0  0.35564  0.11239  0.27977  1.0000
  Ti  Ti62      1.0  0.27961  0.26559  0.47842  1.0000
  Ti  Ti63      1.0  0.36932  0.08684  0.85607  1.0000
  Ti  Ti64      1.0  0.25348  0.39330  0.63316  1.0000
  Ti  Ti65      1.0  0.28080  0.57520  0.14459  1.0000
  Ti  Ti66      1.0  0.15188  0.72234  0.28457  1.0000
  Ti  Ti67      1.0  0.37878  0.68194  0.34433  1.0000
  Ti  Ti68      1.0  0.65706  0.66544  0.77560  1.0000
  Ti  Ti69      1.0  0.32243  0.62537  0.60828  1.0000
  Ti  Ti70      1.0  0.44918  0.73514  0.88355  1.0000
  Ti  Ti71      1.0  0.59840  0.86183  0.67366  1.0000
  Ti  Ti72      1.0  0.61486  0.84721  0.99649  1.0000
  Ti  Ti73      1.0  0.53740  0.32500  0.59522  1.0000
  Ti  Ti74      1.0  0.34682  0.39057  0.89392  1.0000
  Ti  Ti75      1.0  0.22196  0.38633  0.06372  1.0000
  Ti  Ti76      1.0  0.51560  0.52958  0.64756  1.0000
  Ti  Ti77      1.0  0.46942  0.43125  0.16670  1.0000
  Ti  Ti78      1.0  0.57787  0.51171  0.89847  1.0000
  Ti  Ti79      1.0  0.92011  0.48334  0.97561  1.0000
  Ti  Ti80      1.0  0.97660  0.54841  0.20321  1.0000
  Ti  Ti81      1.0  0.84978  0.46278  0.73092  1.0000
  Ti  Ti82      1.0  0.75083  0.97828  0.18562  1.0000
  Ti  Ti83      1.0  0.66718  0.69375  0.32571  1.0000
  Ti  Ti84      1.0  0.83431  0.70200  0.49612  1.0000
  Ti  Ti85      1.0  0.70875  0.12014  0.39409  1.0000
  Ti  Ti86      1.0  0.82202  0.16871  0.24204  1.0000
  Ti  Ti87      1.0  0.68556  0.25202  0.82114  1.0000
  Ti  Ti88      1.0  0.02554  0.24735  0.98433  1.0000
  Ti  Ti89      1.0  0.96329  0.16091  0.64401  1.0000
  Ti  Ti90      1.0  0.14589  0.86430  0.58478  1.0000
  Ti  Ti91      1.0  0.11669  0.55878  0.96034  1.0000
  Ti  Ti92      1.0  0.05950  0.34150  0.25900  1.0000
  Ti  Ti93      1.0  0.05843  0.57651  0.67699  1.0000
  Ti  Ti94      1.0  0.50925  0.15159  0.09748  1.0000
  Ti  Ti95      1.0  0.65350  0.95862  0.56643  1.0000
  Ti  Ti96      1.0  0.55695  0.09723  0.60140  1.0000
  I   I1        1.0  0.04083  0.05021  0.84633  1.0000
  I   I2        1.0  0.16248  0.05660  0.99833  1.0000
  I   I3        1.0  0.32239  0.95035  0.17993  1.0000
  I   I4        1.0  0.09260  0.35730  0.64991  1.0000
  I   I5        1.0  0.14550  0.13660  0.94138  1.0000
  I   I6        1.0  0.14676  0.20730  0.68045  1.0000
  I   I7        1.0  0.84345  0.08340  0.49068  1.0000
  I   I8        1.0  0.97924  0.97436  0.52361  1.0000
  I   I9        1.0  0.96176  0.78600  0.01009  1.0000
  I   I10       1.0  0.17240  0.75347  0.97503  1.0000
  I   I11       1.0  0.03567  0.79286  0.64526  1.0000
  I   I12       1.0  0.12859  0.91956  0.91244  1.0000
  I   I13       1.0  0.28792  0.22292  0.38433  1.0000
  I   I14       1.0  0.41794  0.02947  0.85174  1.0000
  I   I15       1.0  0.34576  0.06841  0.28138  1.0000
  I   I16       1.0  0.31384  0.58451  0.05894  1.0000
  I   I17       1.0  0.21017  0.66794  0.31160  1.0000
  I   I18       1.0  0.26214  0.43554  0.68009  1.0000
  I   I19       1.0  0.63563  0.62877  0.80527  1.0000
  I   I20       1.0  0.26394  0.64558  0.59631  1.0000
  I   I21       1.0  0.38581  0.68195  0.44956  1.0000
  I   I22       1.0  0.57202  0.90548  0.60006  1.0000
  I   I23       1.0  0.63746  0.87452  0.77650  1.0000
  I   I24       1.0  0.47086  0.75499  0.96014  1.0000
  I   I25       1.0  0.39566  0.34738  0.83491  1.0000
  I   I26       1.0  0.26053  0.39107  0.95498  1.0000
  I   I27       1.0  0.51018  0.29698  0.57486  1.0000
  I   I28       1.0  0.45238  0.41573  0.25770  1.0000
  I   I29       1.0  0.60276  0.48896  0.00181  1.0000
  I   I30       1.0  0.54776  0.48197  0.72883  1.0000
  I   I31       1.0  0.98425  0.49942  0.13883  1.0000
  I   I32       1.0  0.80971  0.48507  0.64074  1.0000
  I   I33       1.0  0.91902  0.49153  0.86197  1.0000
  I   I34       1.0  0.66062  0.67913  0.21596  1.0000
  I   I35       1.0  0.89058  0.65602  0.47537  1.0000
  I   I36       1.0  0.71402  0.03454  0.20048  1.0000
  I   I37       1.0  0.76459  0.17429  0.22740  1.0000
  I   I38       1.0  0.66425  0.29996  0.88032  1.0000
  I   I39       1.0  0.67926  0.10912  0.31831  1.0000
  I   I40       1.0  0.99611  0.12757  0.56513  1.0000
  I   I41       1.0  0.13587  0.83358  0.50836  1.0000
  I   I42       1.0  0.97697  0.27947  0.06101  1.0000
  I   I43       1.0  0.04780  0.35563  0.35877  1.0000
  I   I44       1.0  0.03911  0.54896  0.59132  1.0000
  I   I45       1.0  0.07676  0.58445  0.88379  1.0000
  I   I46       1.0  0.67001  0.89778  0.57057  1.0000
  I   I47       1.0  0.59417  0.04163  0.64874  1.0000
  I   I48       1.0  0.51937  0.10735  0.01788  1.0000
  I   I49       1.0  0.41086  0.85920  0.31001  1.0000
  I   I50       1.0  0.09004  0.09565  0.86722  1.0000
  I   I51       1.0  0.24546  0.97987  0.98145  1.0000
  I   I52       1.0  0.14910  0.08478  0.58359  1.0000
  I   I53       1.0  0.04731  0.41624  0.75744  1.0000
  I   I54       1.0  0.19437  0.20561  0.87673  1.0000
  I   I55       1.0  0.84252  0.86513  0.94458  1.0000
  I   I56       1.0  0.89867  0.98542  0.54192  1.0000
  I   I57       1.0  0.94684  0.86663  0.10069  1.0000
  I   I58       1.0  0.12719  0.79774  0.10920  1.0000
  I   I59       1.0  0.25455  0.73629  0.89003  1.0000
  I   I60       1.0  0.92853  0.84195  0.74362  1.0000
  I   I61       1.0  0.34852  0.17144  0.29053  1.0000
  I   I62       1.0  0.25363  0.30417  0.40610  1.0000
  I   I63       1.0  0.40611  0.10428  0.89527  1.0000
  I   I64       1.0  0.27406  0.52790  0.91872  1.0000
  I   I65       1.0  0.23203  0.59569  0.22954  1.0000
  I   I66       1.0  0.12277  0.70667  0.35339  1.0000
  I   I67       1.0  0.38434  0.66001  0.23897  1.0000
  I   I68       1.0  0.66354  0.62802  0.60913  1.0000
  I   I69       1.0  0.32765  0.66286  0.52899  1.0000
  I   I70       1.0  0.44141  0.71574  0.77707  1.0000
  I   I71       1.0  0.61375  0.81418  0.76354  1.0000
  I   I72       1.0  0.65081  0.79554  0.04297  1.0000
  I   I73       1.0  0.53577  0.33263  0.70209  1.0000
  I   I74       1.0  0.30655  0.42809  0.97960  1.0000
  I   I75       1.0  0.19708  0.38431  0.15233  1.0000
  I   I76       1.0  0.54304  0.35022  0.25825  1.0000
  I   I77       1.0  0.50865  0.41641  0.08243  1.0000
  I   I78       1.0  0.53470  0.55119  0.82578  1.0000
  I   I79       1.0  0.91735  0.48494  0.10480  1.0000
  I   I80       1.0  0.95511  0.58831  0.27630  1.0000
  I   I81       1.0  0.87896  0.45134  0.82399  1.0000
  I   I82       1.0  0.79213  0.91424  0.15676  1.0000
  I   I83       1.0  0.56681  0.70946  0.19470  1.0000
  I   I84       1.0  0.85611  0.73458  0.43166  1.0000
  I   I85       1.0  0.75827  0.10869  0.30387  1.0000
  I   I86       1.0  0.86213  0.18392  0.27906  1.0000
  I   I87       1.0  0.79685  0.15613  0.75125  1.0000
  I   I88       1.0  0.92471  0.31863  0.93721  1.0000
  I   I89       1.0  0.88372  0.26359  0.62342  1.0000
  I   I90       1.0  0.14764  0.89746  0.67355  1.0000
  I   I91       1.0  0.16177  0.54447  0.02512  1.0000
  I   I92       1.0  0.01282  0.33420  0.23151  1.0000
  I   I93       1.0  0.07530  0.61625  0.73642  1.0000
  I   I94       1.0  0.45881  0.15332  0.12834  1.0000
  I   I95       1.0  0.64274  0.01716  0.52226  1.0000
  I   I96       1.0  0.53739  0.15440  0.59249  1.0000
  I   I97       1.0  0.31611  0.88654  0.26517  1.0000
  I   I98       1.0  0.38352  0.83151  0.42784  1.0000
  I   I99       1.0  0.18381  0.04502  0.86572  1.0000
  I   I100      1.0  0.09946  0.12035  0.37358  1.0000
  I   I101      1.0  0.23875  0.00165  0.56331  1.0000
  I   I102      1.0  0.10299  0.36570  0.84360  1.0000
  I   I103      1.0  0.88496  0.83487  0.07212  1.0000
  I   I104      1.0  0.99159  0.71712  0.87860  1.0000
  I   I105      1.0  0.98002  0.85690  0.29831  1.0000
  I   I106      1.0  0.87536  0.85209  0.59700  1.0000
  I   I107      1.0  0.20404  0.78968  0.06742  1.0000
  I   I108      1.0  0.01126  0.75151  0.72691  1.0000
  I   I109      1.0  0.41157  0.08838  0.28874  1.0000
  I   I110      1.0  0.36150  0.22227  0.38381  1.0000
  I   I111      1.0  0.37159  0.96545  0.84160  1.0000
  I   I112      1.0  0.22997  0.36520  0.55532  1.0000
  I   I113      1.0  0.24193  0.56744  0.06740  1.0000
  I   I114      1.0  0.15812  0.64541  0.26145  1.0000
  I   I115      1.0  0.34840  0.64443  0.37726  1.0000
  I   I116      1.0  0.48201  0.66760  0.26309  1.0000
  I   I117      1.0  0.60287  0.70849  0.55242  1.0000
  I   I118      1.0  0.51087  0.71583  0.83852  1.0000
  I   I119      1.0  0.35064  0.74690  0.78556  1.0000
  I   I120      1.0  0.65403  0.83264  0.91472  1.0000
  I   I121      1.0  0.60656  0.29334  0.58477  1.0000
  I   I122      1.0  0.40198  0.38833  0.93842  1.0000
  I   I123      1.0  0.24274  0.43535  0.08632  1.0000
  I   I124      1.0  0.46827  0.54607  0.74005  1.0000
  I   I125      1.0  0.58809  0.34357  0.13692  1.0000
  I   I126      1.0  0.53311  0.55063  0.99063  1.0000
  I   I127      1.0  0.85511  0.51462  0.98393  1.0000
  I   I128      1.0  0.91760  0.53675  0.23490  1.0000
  I   I129      1.0  0.78816  0.48218  0.77047  1.0000
  I   I130      1.0  0.82778  0.66174  0.56934  1.0000
  I   I131      1.0  0.68539  0.97710  0.12788  1.0000
  I   I132      1.0  0.65307  0.71280  0.42778  1.0000
  I   I133      1.0  0.64565  0.23759  0.86069  1.0000
  I   I134      1.0  0.81349  0.14547  0.33898  1.0000
  I   I135      1.0  0.81496  0.22130  0.00403  1.0000
  I   I136      1.0  0.18698  0.94670  0.60794  1.0000
  I   I137      1.0  0.00546  0.20412  0.99595  1.0000
  I   I138      1.0  0.95128  0.20580  0.54864  1.0000
  I   I139      1.0  0.14027  0.59410  0.90042  1.0000
  I   I140      1.0  0.04564  0.38766  0.18642  1.0000
  I   I141      1.0  0.08224  0.59524  0.57280  1.0000
  I   I142      1.0  0.50106  0.17895  0.97775  1.0000
  I   I143      1.0  0.71253  0.92942  0.52811  1.0000
  I   I144      1.0  0.61272  0.09528  0.59983  1.0000
  I   I145      1.0  0.34402  0.93858  0.32774  1.0000
  I   I146      1.0  0.08971  0.04848  0.98923  1.0000
  I   I147      1.0  0.26173  0.89792  0.13540  1.0000
  I   I148      1.0  0.17760  0.11003  0.44560  1.0000
  I   I149      1.0  0.09474  0.45816  0.73942  1.0000
  I   I150      1.0  0.17467  0.15790  0.80934  1.0000
  I   I151      1.0  0.87815  0.77716  0.93473  1.0000
  I   I152      1.0  0.92109  0.03043  0.62361  1.0000
  I   I153      1.0  0.99988  0.78201  0.14005  1.0000
  I   I154      1.0  0.08811  0.84120  0.95773  1.0000
  I   I155      1.0  0.09880  0.70083  0.69316  1.0000
  I   I156      1.0  0.95592  0.81180  0.60398  1.0000
  I   I157      1.0  0.33335  0.13111  0.39161  1.0000
  I   I158      1.0  0.34118  0.04629  0.85515  1.0000
  I   I159      1.0  0.26760  0.11739  0.09426  1.0000
  I   I160      1.0  0.18042  0.43162  0.48258  1.0000
  I   I161      1.0  0.25853  0.63714  0.15307  1.0000
  I   I162      1.0  0.22279  0.47526  0.50656  1.0000
  I   I163      1.0  0.44060  0.63332  0.33550  1.0000
  I   I164      1.0  0.60483  0.67939  0.70830  1.0000
  I   I165      1.0  0.41161  0.61918  0.54594  1.0000
  I   I166      1.0  0.42953  0.78532  0.80733  1.0000
  I   I167      1.0  0.56076  0.88678  0.76391  1.0000
  I   I168      1.0  0.56209  0.64643  0.90902  1.0000
  I   I169      1.0  0.48240  0.28639  0.83668  1.0000
  I   I170      1.0  0.35158  0.34877  0.96927  1.0000
  I   I171      1.0  0.60685  0.38539  0.47101  1.0000
  I   I172      1.0  0.47512  0.53073  0.58214  1.0000
  I   I173      1.0  0.56641  0.50928  0.14090  1.0000
  I   I174      1.0  0.55110  0.47690  0.89614  1.0000
  I   I175      1.0  0.92296  0.53899  0.01481  1.0000
  I   I176      1.0  0.80038  0.42965  0.58442  1.0000
  I   I177      1.0  0.84019  0.52210  0.74706  1.0000
  I   I178      1.0  0.75994  0.98044  0.06569  1.0000
  I   I179      1.0  0.60926  0.74809  0.28583  1.0000
  I   I180      1.0  0.90893  0.69507  0.56806  1.0000
  I   I181      1.0  0.68948  0.18163  0.31942  1.0000
  I   I182      1.0  0.78350  0.23900  0.22193  1.0000
  I   I183      1.0  0.79092  0.13816  0.90969  1.0000
  I   I184      1.0  0.94296  0.24750  0.86227  1.0000
  I   I185      1.0  0.92518  0.20803  0.73685  1.0000
  I   I186      1.0  0.20228  0.83276  0.62269  1.0000
  I   I187      1.0  0.16337  0.29867  0.22886  1.0000
  I   I188      1.0  0.97666  0.60541  0.50009  1.0000
  I   I189      1.0  0.11221  0.53610  0.69889  1.0000
  I   I190      1.0  0.68185  0.85752  0.41187  1.0000
  I   I191      1.0  0.67907  0.96578  0.66718  1.0000
  I   I192      1.0  0.57301  0.11940  0.89658  1.0000
  I   I193      1.0  0.29963  0.90907  0.40420  1.0000
  I   I194      1.0  0.12588  0.01871  0.82520  1.0000
  I   I195      1.0  0.32225  0.90316  0.04952  1.0000
  I   I196      1.0  0.23260  0.07689  0.57248  1.0000
  I   I197      1.0  0.04635  0.45536  0.88646  1.0000
  I   I198      1.0  0.22287  0.19863  0.71748  1.0000
  I   I199      1.0  0.91940  0.72881  0.80275  1.0000
  I   I200      1.0  0.83524  0.01876  0.38741  1.0000
  I   I201      1.0  0.91919  0.84459  0.21811  1.0000
  I   I202      1.0  0.13622  0.86636  0.04324  1.0000
  I   I203      1.0  0.10738  0.77200  0.73957  1.0000
  I   I204      1.0  0.92931  0.88793  0.53889  1.0000
  I   I205      1.0  0.39839  0.14073  0.43475  1.0000
  I   I206      1.0  0.42841  0.97251  0.71801  1.0000
  I   I207      1.0  0.32555  0.14746  0.04019  1.0000
  I   I208      1.0  0.26635  0.60334  0.93480  1.0000
  I   I209      1.0  0.16726  0.66030  0.12006  1.0000
  I   I210      1.0  0.19483  0.44425  0.63524  1.0000
  I   I211      1.0  0.44714  0.69727  0.13913  1.0000
  I   I212      1.0  0.65560  0.68536  0.86755  1.0000
  I   I213      1.0  0.33792  0.59654  0.50511  1.0000
  I   I214      1.0  0.39192  0.77317  0.67690  1.0000
  I   I215      1.0  0.59802  0.81686  0.92060  1.0000
  I   I216      1.0  0.55884  0.71901  0.96427  1.0000
  I   I217      1.0  0.49373  0.34503  0.93039  1.0000
  I   I218      1.0  0.32812  0.39281  0.11922  1.0000
  I   I219      1.0  0.56268  0.38831  0.60628  1.0000
  I   I220      1.0  0.52581  0.42439  0.22238  1.0000
  I   I221      1.0  0.62447  0.54280  0.06000  1.0000
  I   I222      1.0  0.46107  0.56241  0.88668  1.0000
  I   I223      1.0  0.85577  0.56176  0.12726  1.0000
  I   I224      1.0  0.77316  0.40510  0.73570  1.0000
  I   I225      1.0  0.79919  0.52355  0.87946  1.0000
  I   I226      1.0  0.73219  0.90234  0.15599  1.0000
  I   I227      1.0  0.57365  0.77710  0.13952  1.0000
  I   I228      1.0  0.85262  0.70736  0.68885  1.0000
  I   I229      1.0  0.73868  0.14659  0.43287  1.0000
  I   I230      1.0  0.83187  0.26555  0.14173  1.0000
  I   I231      1.0  0.74567  0.23783  0.78587  1.0000
  I   I232      1.0  0.91227  0.24980  0.99747  1.0000
  I   I233      1.0  0.97737  0.12052  0.72320  1.0000
  I   I234      1.0  0.22140  0.87402  0.51002  1.0000
  I   I235      1.0  0.13354  0.35576  0.11884  1.0000
  I   I236      1.0  0.02954  0.63734  0.46281  1.0000
  I   I237      1.0  0.16664  0.57530  0.74836  1.0000
  I   I238      1.0  0.72239  0.91260  0.39195  1.0000
  I   I239      1.0  0.70454  0.02876  0.62169  1.0000
  I   I240      1.0  0.56822  0.18198  0.99900  1.0000
  I   I241      1.0  0.37353  0.91116  0.44918  1.0000
  I   I242      1.0  0.16676  0.97959  0.95759  1.0000
  I   I243      1.0  0.33565  0.82719  0.10499  1.0000
  I   I244      1.0  0.17992  0.03809  0.44968  1.0000
  I   I245      1.0  0.13455  0.42415  0.87128  1.0000
  I   I246      1.0  0.12669  0.26459  0.78578  1.0000
  I   I247      1.0  0.93923  0.70152  0.96204  1.0000
  I   I248      1.0  0.91229  0.01185  0.41882  1.0000
  I   I249      1.0  0.93439  0.76903  0.18047  1.0000
  I   I250      1.0  0.17289  0.82681  0.92202  1.0000
  I   I251      1.0  0.08796  0.72555  0.83567  1.0000
  I   I252      1.0  0.88639  0.91462  0.68616  1.0000
  I   I253      1.0  0.32009  0.20593  0.50248  1.0000
  I   I254      1.0  0.35168  0.03289  0.71264  1.0000
  I   I255      1.0  0.34978  0.05574  0.06281  1.0000
  I   I256      1.0  0.34341  0.53266  0.93646  1.0000
  I   I257      1.0  0.18799  0.71886  0.18669  1.0000
  I   I258      1.0  0.31426  0.36725  0.61709  1.0000
  I   I259      1.0  0.45466  0.61725  0.16222  1.0000
  I   I260      1.0  0.65007  0.72087  0.71171  1.0000
  I   I261      1.0  0.41679  0.57235  0.42405  1.0000
  I   I262      1.0  0.33853  0.82721  0.80878  1.0000
  I   I263      1.0  0.57446  0.90258  0.90744  1.0000
  I   I264      1.0  0.53184  0.67232  0.04981  1.0000
  I   I265      1.0  0.46169  0.30049  0.99426  1.0000
  I   I266      1.0  0.28043  0.34857  0.07336  1.0000
  I   I267      1.0  0.64930  0.33948  0.58800  1.0000
  I   I268      1.0  0.50876  0.34292  0.12394  1.0000
  I   I269      1.0  0.54767  0.58838  0.13107  1.0000
  I   I270      1.0  0.47813  0.48366  0.85364  1.0000
  I   I271      1.0  0.93336  0.58315  0.12913  1.0000
  I   I272      1.0  0.73231  0.48556  0.65909  1.0000
  I   I273      1.0  0.86130  0.56384  0.86714  1.0000
  I   I274      1.0  0.72470  0.93153  0.99038  1.0000
  I   I275      1.0  0.62368  0.70128  0.07832  1.0000
  I   I276      1.0  0.90479  0.62206  0.62093  1.0000
  I   I277      1.0  0.75081  0.20885  0.38794  1.0000
  I   I278      1.0  0.74982  0.27868  0.09968  1.0000
  I   I279      1.0  0.71749  0.18243  0.81244  1.0000
  I   I280      1.0  0.04789  0.22679  0.88227  1.0000
  I   I281      1.0  0.90971  0.16439  0.62954  1.0000
  I   I282      1.0  0.23290  0.87690  0.69400  1.0000
  I   I283      1.0  0.10325  0.36947  0.29423  1.0000
  I   I284      1.0  0.04387  0.55122  0.42631  1.0000
  I   I285      1.0  0.14915  0.52487  0.85599  1.0000
  I   I286      1.0  0.74911  0.84324  0.48274  1.0000
  I   I287      1.0  0.64917  0.04666  0.74046  1.0000
  I   I288      1.0  0.60004  0.10488  0.05751  1.0000
  I   I289      1.0  0.40832  0.91708  0.20484  1.0000
  I   I290      1.0  0.00274  0.10165  0.99236  1.0000
  I   I291      1.0  0.24584  0.05167  0.03187  1.0000
  I   I292      1.0  0.07886  0.10781  0.52364  1.0000
  I   I293      1.0  0.09043  0.42819  0.60450  1.0000
  I   I294      1.0  0.22897  0.12361  0.94339  1.0000
  I   I295      1.0  0.91330  0.80100  0.86377  1.0000
  I   I296      1.0  0.81204  0.02047  0.53523  1.0000
  I   I297      1.0  0.96827  0.91573  0.16798  1.0000
  I   I298      1.0  0.09670  0.87897  0.82497  1.0000
  I   I299      1.0  0.25337  0.69340  0.02861  1.0000
  I   I300      1.0  0.96888  0.87471  0.69151  1.0000
  I   I301      1.0  0.30095  0.14102  0.21055  1.0000
  I   I302      1.0  0.30477  0.29484  0.52174  1.0000
  I   I303      1.0  0.32063  0.13162  0.88196  1.0000
  I   I304      1.0  0.24983  0.36641  0.72191  1.0000
  I   I305      1.0  0.32142  0.56282  0.21033  1.0000
  I   I306      1.0  0.09898  0.75412  0.23946  1.0000
  I   I307      1.0  0.39796  0.72116  0.29897  1.0000
  I   I308      1.0  0.69195  0.68459  0.58687  1.0000
  I   I309      1.0  0.34746  0.57406  0.64799  1.0000
  I   I310      1.0  0.38963  0.76031  0.90842  1.0000
  I   I311      1.0  0.65002  0.82755  0.62975  1.0000
  I   I312      1.0  0.56081  0.86816  0.04356  1.0000
  I   I313      1.0  0.49221  0.38020  0.59187  1.0000
  I   I314      1.0  0.31721  0.38120  0.81590  1.0000
  I   I315      1.0  0.21644  0.33989  0.02251  1.0000
  I   I316      1.0  0.55742  0.51206  0.57661  1.0000
  I   I317      1.0  0.44996  0.48760  0.17963  1.0000
  I   I318      1.0  0.61314  0.47737  0.82574  1.0000
  I   I319      1.0  0.97724  0.46056  0.97919  1.0000
  I   I320      1.0  0.02334  0.55180  0.17145  1.0000
  I   I321      1.0  0.89905  0.44530  0.66555  1.0000
  I   I322      1.0  0.73154  0.96147  0.27630  1.0000
  I   I323      1.0  0.70018  0.71432  0.29103  1.0000
  I   I324      1.0  0.80138  0.74856  0.56773  1.0000
  I   I325      1.0  0.74242  0.07191  0.45127  1.0000
  I   I326      1.0  0.83166  0.17575  0.13608  1.0000
  I   I327      1.0  0.74378  0.22034  0.92652  1.0000
  I   I328      1.0  0.06649  0.22281  0.05722  1.0000
  I   I329      1.0  0.94844  0.27111  0.69030  1.0000
  I   I330      1.0  0.09703  0.86865  0.63185  1.0000
  I   I331      1.0  0.11175  0.51388  0.00069  1.0000
  I   I332      1.0  0.09569  0.28565  0.29068  1.0000
  I   I333      1.0  0.02163  0.58154  0.75079  1.0000
  I   I334      1.0  0.50545  0.19734  0.14236  1.0000
  I   I335      1.0  0.60671  0.96965  0.62264  1.0000
  I   I336      1.0  0.51154  0.09922  0.65079  1.0000
  I   I337      1.0  0.38218  0.85813  0.15924  1.0000
  I   I338      1.0  0.01255  0.14049  0.86794  1.0000
  I   I339      1.0  0.27037  0.02156  0.88227  1.0000
  I   I340      1.0  0.10367  0.17134  0.48610  1.0000
  I   I341      1.0  0.15427  0.36741  0.73082  1.0000
  I   I342      1.0  0.16960  0.18997  0.02561  1.0000
  I   I343      1.0  0.91170  0.87134  0.95103  1.0000
  I   I344      1.0  0.93899  0.06810  0.50755  1.0000
  I   I345      1.0  0.89524  0.92247  0.24843  1.0000
  I   I346      1.0  0.06314  0.92872  0.96716  1.0000
  I   I347      1.0  0.27875  0.75825  0.02739  1.0000
  I   I348      1.0  0.02091  0.80801  0.79341  1.0000
  I   I349      1.0  0.37011  0.10201  0.16167  1.0000
  I   I350      1.0  0.23367  0.27475  0.53987  1.0000
  I   I351      1.0  0.37162  0.09724  0.75249  1.0000
  I   I352      1.0  0.27270  0.38695  0.45566  1.0000
  I   I353      1.0  0.31744  0.51950  0.08518  1.0000
  I   I354      1.0  0.15279  0.76064  0.34634  1.0000
  I   I355      1.0  0.32571  0.72407  0.34948  1.0000
  I   I356      1.0  0.71225  0.63166  0.73821  1.0000
  I   I357      1.0  0.31097  0.66268  0.68931  1.0000
  I   I358      1.0  0.47653  0.67902  0.92025  1.0000
  I   I359      1.0  0.56423  0.83690  0.63921  1.0000
  I   I360      1.0  0.64615  0.86890  0.03702  1.0000
  I   I361      1.0  0.55902  0.33039  0.48375  1.0000
  I   I362      1.0  0.34187  0.44296  0.85583  1.0000
  I   I363      1.0  0.17324  0.42945  0.00646  1.0000
  I   I364      1.0  0.51221  0.58134  0.67320  1.0000
  I   I365      1.0  0.42749  0.43963  0.09234  1.0000
  I   I366      1.0  0.59885  0.55133  0.89959  1.0000
  I   I367      1.0  0.92065  0.43366  0.99365  1.0000
  I   I368      1.0  0.00026  0.50395  0.27587  1.0000
  I   I369      1.0  0.85016  0.40390  0.71577  1.0000
  I   I370      1.0  0.80104  0.97419  0.20404  1.0000
  I   I371      1.0  0.70724  0.64070  0.35598  1.0000
  I   I372      1.0  0.80131  0.69507  0.42571  1.0000
  I   I373      1.0  0.67077  0.14466  0.46895  1.0000
  I   I374      1.0  0.85266  0.10898  0.22296  1.0000
  I   I375      1.0  0.66084  0.27145  0.72671  1.0000
  I   I376      1.0  0.03471  0.29314  0.97567  1.0000
  I   I377      1.0  0.00069  0.18652  0.66502  1.0000
  I   I378      1.0  0.12673  0.91522  0.52721  1.0000
  I   I379      1.0  0.07496  0.59493  0.02283  1.0000
  I   I380      1.0  0.09126  0.31343  0.12531  1.0000
  I   I381      1.0  0.01132  0.62886  0.62609  1.0000
  I   I382      1.0  0.54521  0.11403  0.16904  1.0000
  I   I383      1.0  0.64119  0.94875  0.46655  1.0000
  I   I384      1.0  0.54098  0.08669  0.50317  1.0000
