data_image0
_chemical_formula_structural       Ti96I384
_chemical_formula_sum              "Ti96 I384"
_cell_length_a       70.8198
_cell_length_b       70.6352
_cell_length_c       34.5717
_cell_angle_alpha    88.7757
_cell_angle_beta     88.7757
_cell_angle_gamma    62.1586

_space_group_name_H-M_alt    "P 1"
_space_group_IT_number       1

loop_
  _space_group_symop_operation_xyz
  'x, y, z'

loop_
  _atom_site_type_symbol
  _atom_site_label
  _atom_site_symmetry_multiplicity
  _atom_site_fract_x
  _atom_site_fract_y
  _atom_site_fract_z
  _atom_site_occupancy
  Ti  Ti1       1.0  0.13490  0.92266  0.26459  1.0000
  Ti  Ti2       1.0  0.96750  0.09996  0.99583  1.0000
  Ti  Ti3       1.0  0.33252  0.05376  0.20519  1.0000
  Ti  Ti4       1.0  0.07726  0.46969  0.67714  1.0000
  Ti  Ti5       1.0  0.44866  0.44476  0.11876  1.0000
  Ti  Ti6       1.0  0.83654  0.85497  0.21059  1.0000
  Ti  Ti7       1.0  0.66962  0.93220  0.57298  1.0000
  Ti  Ti8       1.0  0.22117  0.52415  0.50638  1.0000
  Ti  Ti9       1.0  0.44442  0.13582  0.22360  1.0000
  Ti  Ti10      1.0  0.46888  0.45534  0.87483  1.0000
  Ti  Ti11      1.0  0.11826  0.45852  0.77495  1.0000
  Ti  Ti12      1.0  0.86219  0.73491  0.70894  1.0000
  Ti  Ti13      1.0  0.74550  0.46300  0.75679  1.0000
  Ti  Ti14      1.0  0.95169  0.00880  0.87799  1.0000
  Ti  Ti15      1.0  0.58335  0.68166  0.80439  1.0000
  Ti  Ti16      1.0  0.48458  0.46878  0.77435  1.0000
  Ti  Ti17      1.0  0.27412  0.69623  0.50397  1.0000
  Ti  Ti18      1.0  0.45851  0.95123  0.57570  1.0000
  Ti  Ti19      1.0  0.41003  0.57627  0.39630  1.0000
  Ti  Ti20      1.0  0.85748  0.99963  0.70870  1.0000
  Ti  Ti21      1.0  0.19059  0.49834  0.57375  1.0000
  Ti  Ti22      1.0  0.63590  0.77249  0.37864  1.0000
  Ti  Ti23      1.0  0.23885  0.07690  0.32023  1.0000
  Ti  Ti24      1.0  0.05140  0.81287  0.26639  1.0000
  Ti  Ti25      1.0  0.38647  0.30159  0.47695  1.0000
  Ti  Ti26      1.0  0.78459  0.95642  0.88006  1.0000
  Ti  Ti27      1.0  0.76430  0.20142  0.35564  1.0000
  Ti  Ti28      1.0  0.37209  0.96846  0.94694  1.0000
  Ti  Ti29      1.0  0.10287  0.80367  0.75401  1.0000
  Ti  Ti30      1.0  0.29397  0.94078  0.67749  1.0000
  Ti  Ti31      1.0  0.85175  0.84262  0.49841  1.0000
  Ti  Ti32      1.0  0.34788  0.93592  0.16104  1.0000
  Ti  Ti33      1.0  0.25573  0.66214  0.04739  1.0000
  Ti  Ti34      1.0  0.64417  0.42268  0.71210  1.0000
  Ti  Ti35      1.0  0.05692  0.33878  0.87978  1.0000
  Ti  Ti36      1.0  0.99333  0.22506  0.88099  1.0000
  Ti  Ti37      1.0  0.25929  0.08167  0.60915  1.0000
  Ti  Ti38      1.0  0.88596  0.19485  0.23184  1.0000
  Ti  Ti39      1.0  0.76768  0.58845  0.23201  1.0000
  Ti  Ti40      1.0  0.53443  0.59951  0.47570  1.0000
  Ti  Ti41      1.0  0.57534  0.06715  0.66060  1.0000
  Ti  Ti42      1.0  0.12903  0.82515  0.00363  1.0000
  Ti  Ti43      1.0  0.06286  0.08537  0.75870  1.0000
  Ti  Ti44      1.0  0.59386  0.10259  0.66250  1.0000
  Ti  Ti45      1.0  0.12063  0.29647  0.02484  1.0000
  Ti  Ti46      1.0  0.39714  0.82699  0.41072  1.0000
  Ti  Ti47      1.0  0.68736  0.19284  0.60202  1.0000
  Ti  Ti48      1.0  0.89139  0.01809  0.23333  1.0000
  Ti  Ti49      1.0  0.14070  0.04321  0.98329  1.0000
  Ti  Ti50      1.0  0.36837  0.40208  0.82649  1.0000
  Ti  Ti51      1.0  0.00658  0.03091  0.00162  1.0000
  Ti  Ti52      1.0  0.56110  0.31159  0.13007  1.0000
  Ti  Ti53      1.0  0.41339  0.67646  0.23991  1.0000
  Ti  Ti54      1.0  0.96184  0.80121  0.78251  1.0000
  Ti  Ti55      1.0  0.67550  0.95131  0.67691  1.0000
  Ti  Ti56      1.0  0.37180  0.36653  0.26586  1.0000
  Ti  Ti57      1.0  0.46105  0.13083  0.14030  1.0000
  Ti  Ti58      1.0  0.66041  0.36115  0.50700  1.0000
  Ti  Ti59      1.0  0.79169  0.15793  0.96002  1.0000
  Ti  Ti60      1.0  0.90454  0.69841  0.66551  1.0000
  Ti  Ti61      1.0  0.63925  0.65080  0.74452  1.0000
  Ti  Ti62      1.0  0.76944  0.40789  0.81205  1.0000
  Ti  Ti63      1.0  0.59377  0.05177  0.21382  1.0000
  Ti  Ti64      1.0  0.43102  0.92905  0.57384  1.0000
  Ti  Ti65      1.0  0.91893  0.75350  0.02782  1.0000
  Ti  Ti66      1.0  0.55784  0.31271  0.86031  1.0000
  Ti  Ti67      1.0  0.78288  0.73049  0.95564  1.0000
  Ti  Ti68      1.0  0.45909  0.54128  0.38156  1.0000
  Ti  Ti69      1.0  0.77258  0.93247  0.79880  1.0000
  Ti  Ti70      1.0  0.73257  0.79057  0.94952  1.0000
  Ti  Ti71      1.0  0.19324  0.11018  0.20701  1.0000
  Ti  Ti72      1.0  0.72489  0.19029  0.66156  1.0000
  Ti  Ti73      1.0  0.73485  0.22677  0.26019  1.0000
  Ti  Ti74      1.0  0.38805  0.28684  0.57669  1.0000
  Ti  Ti75      1.0  0.51763  0.92654  0.11243  1.0000
  Ti  Ti76      1.0  0.23703  0.98352  0.72905  1.0000
  Ti  Ti77      1.0  0.40555  0.14062  0.74660  1.0000
  Ti  Ti78      1.0  0.09366  0.77209  0.80425  1.0000
  Ti  Ti79      1.0  0.65092  0.71329  0.11304  1.0000
  Ti  Ti80      1.0  0.91870  0.28012  0.45249  1.0000
  Ti  Ti81      1.0  0.37806  0.89322  0.11930  1.0000
  Ti  Ti82      1.0  0.35674  0.25321  0.09599  1.0000
  Ti  Ti83      1.0  0.99383  0.37744  0.86726  1.0000
  Ti  Ti84      1.0  0.05028  0.22727  0.92258  1.0000
  Ti  Ti85      1.0  0.23317  0.06722  0.53632  1.0000
  Ti  Ti86      1.0  0.54222  0.28097  0.89872  1.0000
  Ti  Ti87      1.0  0.15134  0.30542  0.09011  1.0000
  Ti  Ti88      1.0  0.60123  0.32109  0.21836  1.0000
  Ti  Ti89      1.0  0.51780  0.27420  0.42519  1.0000
  Ti  Ti90      1.0  0.09809  0.88793  0.97157  1.0000
  Ti  Ti91      1.0  0.31388  0.49365  0.29549  1.0000
  Ti  Ti92      1.0  0.34142  0.69733  0.89793  1.0000
  Ti  Ti93      1.0  0.00158  0.62499  0.10483  1.0000
  Ti  Ti94      1.0  0.89586  0.06551  0.26002  1.0000
  Ti  Ti95      1.0  0.45174  0.64582  0.05928  1.0000
  Ti  Ti96      1.0  0.91560  0.36274  0.01135  1.0000
  I   I1        1.0  0.67230  0.23441  0.62803  1.0000
  I   I2        1.0  0.96740  0.06574  0.04296  1.0000
  I   I3        1.0  0.14210  0.07851  0.00468  1.0000
  I   I4        1.0  0.43613  0.63478  0.24538  1.0000
  I   I5        1.0  0.82582  0.82243  0.20926  1.0000
  I   I6        1.0  0.99678  0.78759  0.74823  1.0000
  I   I7        1.0  0.20425  0.50665  0.64918  1.0000
  I   I8        1.0  0.40105  0.32641  0.26313  1.0000
  I   I9        1.0  0.43416  0.12980  0.09240  1.0000
  I   I10       1.0  0.52134  0.43619  0.75247  1.0000
  I   I11       1.0  0.16293  0.42784  0.76784  1.0000
  I   I12       1.0  0.44302  0.46808  0.18023  1.0000
  I   I13       1.0  0.71676  0.45770  0.71965  1.0000
  I   I14       1.0  0.60659  0.06185  0.27506  1.0000
  I   I15       1.0  0.57667  0.66727  0.73840  1.0000
  I   I16       1.0  0.47719  0.43250  0.78900  1.0000
  I   I17       1.0  0.60312  0.29715  0.85754  1.0000
  I   I18       1.0  0.44121  0.99442  0.60132  1.0000
  I   I19       1.0  0.89544  0.99558  0.70387  1.0000
  I   I20       1.0  0.12114  0.49530  0.79993  1.0000
  I   I21       1.0  0.23359  0.49775  0.56280  1.0000
  I   I22       1.0  0.26211  0.09610  0.33507  1.0000
  I   I23       1.0  0.26597  0.03377  0.32065  1.0000
  I   I24       1.0  0.80293  0.71525  0.01790  1.0000
  I   I25       1.0  0.35281  0.30342  0.53283  1.0000
  I   I26       1.0  0.49181  0.90946  0.10313  1.0000
  I   I27       1.0  0.78765  0.22055  0.38120  1.0000
  I   I28       1.0  0.38557  0.99254  0.89924  1.0000
  I   I29       1.0  0.10361  0.81302  0.83144  1.0000
  I   I30       1.0  0.31972  0.95749  0.66522  1.0000
  I   I31       1.0  0.94076  0.26694  0.38870  1.0000
  I   I32       1.0  0.36838  0.89214  0.19439  1.0000
  I   I33       1.0  0.60863  0.72669  0.12061  1.0000
  I   I34       1.0  0.08036  0.29974  0.90344  1.0000
  I   I35       1.0  0.01420  0.22627  0.95122  1.0000
  I   I36       1.0  0.62721  0.40078  0.68616  1.0000
  I   I37       1.0  0.22735  0.09501  0.65884  1.0000
  I   I38       1.0  0.75073  0.62836  0.22071  1.0000
  I   I39       1.0  0.23046  0.10705  0.55329  1.0000
  I   I40       1.0  0.62063  0.05616  0.64671  1.0000
  I   I41       1.0  0.08115  0.88923  0.04397  1.0000
  I   I42       1.0  0.52916  0.56589  0.48004  1.0000
  I   I43       1.0  0.67964  0.32404  0.47754  1.0000
  I   I44       1.0  0.55559  0.13162  0.63573  1.0000
  I   I45       1.0  0.13808  0.32552  0.99997  1.0000
  I   I46       1.0  0.46185  0.63917  0.13225  1.0000
  I   I47       1.0  0.72835  0.19314  0.57442  1.0000
  I   I48       1.0  0.89283  0.98909  0.18175  1.0000
  I   I49       1.0  0.15596  0.02950  0.91753  1.0000
  I   I50       1.0  0.03093  0.04382  0.04909  1.0000
  I   I51       1.0  0.00486  0.99942  0.03889  1.0000
  I   I52       1.0  0.91900  0.25023  0.49985  1.0000
  I   I53       1.0  0.40647  0.69960  0.30045  1.0000
  I   I54       1.0  0.95359  0.77132  0.81095  1.0000
  I   I55       1.0  0.69189  0.90410  0.63410  1.0000
  I   I56       1.0  0.20140  0.46720  0.52474  1.0000
  I   I57       1.0  0.48796  0.10359  0.20837  1.0000
  I   I58       1.0  0.49931  0.42066  0.89775  1.0000
  I   I59       1.0  0.82202  0.16827  0.95968  1.0000
  I   I60       1.0  0.88948  0.68655  0.72229  1.0000
  I   I61       1.0  0.78859  0.37751  0.86451  1.0000
  I   I62       1.0  0.75613  0.47635  0.68712  1.0000
  I   I63       1.0  0.58767  0.01849  0.24042  1.0000
  I   I64       1.0  0.49579  0.50058  0.76801  1.0000
  I   I65       1.0  0.88537  0.76272  0.98391  1.0000
  I   I66       1.0  0.53905  0.34495  0.81398  1.0000
  I   I67       1.0  0.37873  0.59387  0.44778  1.0000
  I   I68       1.0  0.84800  0.98040  0.65153  1.0000
  I   I69       1.0  0.80425  0.91146  0.76136  1.0000
  I   I70       1.0  0.71127  0.76715  0.94675  1.0000
  I   I71       1.0  0.20401  0.13419  0.17209  1.0000
  I   I72       1.0  0.72318  0.15250  0.60854  1.0000
  I   I73       1.0  0.71278  0.21745  0.20945  1.0000
  I   I74       1.0  0.77426  0.94296  0.95088  1.0000
  I   I75       1.0  0.78251  0.96562  0.79909  1.0000
  I   I76       1.0  0.37771  0.17942  0.73999  1.0000
  I   I77       1.0  0.42071  0.12774  0.67636  1.0000
  I   I78       1.0  0.09740  0.92380  0.25612  1.0000
  I   I79       1.0  0.29115  0.65770  0.01265  1.0000
  I   I80       1.0  0.87052  0.86162  0.45572  1.0000
  I   I81       1.0  0.38229  0.92854  0.21194  1.0000
  I   I82       1.0  0.36483  0.28774  0.09466  1.0000
  I   I83       1.0  0.01851  0.34410  0.92515  1.0000
  I   I84       1.0  0.98829  0.21968  0.80387  1.0000
  I   I85       1.0  0.28551  0.07074  0.66430  1.0000
  I   I86       1.0  0.56670  0.27472  0.82770  1.0000
  I   I87       1.0  0.74470  0.57628  0.27903  1.0000
  I   I88       1.0  0.50920  0.62900  0.42871  1.0000
  I   I89       1.0  0.57952  0.02694  0.65884  1.0000
  I   I90       1.0  0.11656  0.91422  0.97442  1.0000
  I   I91       1.0  0.30565  0.46954  0.25407  1.0000
  I   I92       1.0  0.31373  0.73766  0.89360  1.0000
  I   I93       1.0  0.61293  0.11466  0.61249  1.0000
  I   I94       1.0  0.89460  0.04230  0.31736  1.0000
  I   I95       1.0  0.40169  0.84864  0.47336  1.0000
  I   I96       1.0  0.88669  0.35176  0.02870  1.0000
  I   I97       1.0  0.31831  0.02730  0.17604  1.0000
  I   I98       1.0  0.15416  0.88552  0.29698  1.0000
  I   I99       1.0  0.98853  0.10752  0.05105  1.0000
  I   I100      1.0  0.12656  0.47443  0.70242  1.0000
  I   I101      1.0  0.60141  0.28776  0.17693  1.0000
  I   I102      1.0  0.48251  0.44068  0.07761  1.0000
  I   I103      1.0  0.67441  0.96205  0.54026  1.0000
  I   I104      1.0  0.69347  0.93763  0.74899  1.0000
  I   I105      1.0  0.41858  0.16254  0.17231  1.0000
  I   I106      1.0  0.82555  0.73241  0.71628  1.0000
  I   I107      1.0  0.46093  0.48019  0.93625  1.0000
  I   I108      1.0  0.94270  0.70193  0.63044  1.0000
  I   I109      1.0  0.57829  0.65984  0.85823  1.0000
  I   I110      1.0  0.73961  0.45300  0.83005  1.0000
  I   I111      1.0  0.62475  0.03698  0.16633  1.0000
  I   I112      1.0  0.47387  0.90846  0.57561  1.0000
  I   I113      1.0  0.95012  0.71678  0.99895  1.0000
  I   I114      1.0  0.28331  0.72612  0.53719  1.0000
  I   I115      1.0  0.74980  0.76244  0.01587  1.0000
  I   I116      1.0  0.81453  0.71550  0.90168  1.0000
  I   I117      1.0  0.43015  0.53823  0.44312  1.0000
  I   I118      1.0  0.60724  0.75772  0.39405  1.0000
  I   I119      1.0  0.71557  0.81430  0.88468  1.0000
  I   I120      1.0  0.74039  0.21613  0.66776  1.0000
  I   I121      1.0  0.78222  0.16403  0.38932  1.0000
  I   I122      1.0  0.38916  0.26996  0.42880  1.0000
  I   I123      1.0  0.49520  0.95904  0.07081  1.0000
  I   I124      1.0  0.32053  0.90310  0.71456  1.0000
  I   I125      1.0  0.36356  0.94177  0.91052  1.0000
  I   I126      1.0  0.14172  0.78844  0.73269  1.0000
  I   I127      1.0  0.23329  0.70120  0.06732  1.0000
  I   I128      1.0  0.06621  0.50058  0.73618  1.0000
  I   I129      1.0  0.33202  0.91023  0.11360  1.0000
  I   I130      1.0  0.08269  0.19866  0.95979  1.0000
  I   I131      1.0  0.38516  0.24298  0.14926  1.0000
  I   I132      1.0  0.97101  0.40746  0.81551  1.0000
  I   I133      1.0  0.79803  0.57337  0.28001  1.0000
  I   I134      1.0  0.90524  0.20879  0.17676  1.0000
  I   I135      1.0  0.56242  0.30629  0.94213  1.0000
  I   I136      1.0  0.06340  0.91318  0.94361  1.0000
  I   I137      1.0  0.63943  0.31784  0.18972  1.0000
  I   I138      1.0  0.47737  0.30441  0.42355  1.0000
  I   I139      1.0  0.32310  0.48503  0.36891  1.0000
  I   I140      1.0  0.35745  0.68251  0.83221  1.0000
  I   I141      1.0  0.96351  0.62404  0.10015  1.0000
  I   I142      1.0  0.86426  0.10711  0.25469  1.0000
  I   I143      1.0  0.38394  0.80068  0.43023  1.0000
  I   I144      1.0  0.94868  0.32146  0.01885  1.0000
  I   I145      1.0  0.13655  0.94065  0.32603  1.0000
  I   I146      1.0  0.95843  0.13210  0.95392  1.0000
  I   I147      1.0  0.31142  0.09338  0.20629  1.0000
  I   I148      1.0  0.54300  0.32218  0.06246  1.0000
  I   I149      1.0  0.41667  0.45810  0.07235  1.0000
  I   I150      1.0  0.81685  0.86412  0.27863  1.0000
  I   I151      1.0  0.64026  0.97957  0.71020  1.0000
  I   I152      1.0  0.17659  0.53678  0.53202  1.0000
  I   I153      1.0  0.44481  0.10444  0.16828  1.0000
  I   I154      1.0  0.07095  0.08173  0.68172  1.0000
  I   I155      1.0  0.10287  0.43614  0.72807  1.0000
  I   I156      1.0  0.87145  0.72131  0.63013  1.0000
  I   I157      1.0  0.55521  0.72259  0.81852  1.0000
  I   I158      1.0  0.55899  0.09048  0.19023  1.0000
  I   I159      1.0  0.68080  0.63669  0.73718  1.0000
  I   I160      1.0  0.43274  0.89445  0.59459  1.0000
  I   I161      1.0  0.26653  0.70885  0.42837  1.0000
  I   I162      1.0  0.43491  0.95714  0.51419  1.0000
  I   I163      1.0  0.39882  0.55595  0.34892  1.0000
  I   I164      1.0  0.44746  0.53700  0.30972  1.0000
  I   I165      1.0  0.21105  0.51029  0.44542  1.0000
  I   I166      1.0  0.63623  0.79897  0.43357  1.0000
  I   I167      1.0  0.19679  0.09953  0.28232  1.0000
  I   I168      1.0  0.04370  0.77826  0.27405  1.0000
  I   I169      1.0  0.38606  0.32442  0.54525  1.0000
  I   I170      1.0  0.38381  0.25205  0.58251  1.0000
  I   I171      1.0  0.70547  0.26632  0.27248  1.0000
  I   I172      1.0  0.23715  0.00185  0.79694  1.0000
  I   I173      1.0  0.08141  0.74093  0.80645  1.0000
  I   I174      1.0  0.27220  0.98575  0.70889  1.0000
  I   I175      1.0  0.82032  0.83520  0.51017  1.0000
  I   I176      1.0  0.32055  0.96548  0.11282  1.0000
  I   I177      1.0  0.65480  0.68028  0.07215  1.0000
  I   I178      1.0  0.31898  0.28251  0.11437  1.0000
  I   I179      1.0  0.97953  0.40593  0.93004  1.0000
  I   I180      1.0  0.04922  0.19180  0.87349  1.0000
  I   I181      1.0  0.24400  0.04766  0.46591  1.0000
  I   I182      1.0  0.51573  0.32272  0.87458  1.0000
  I   I183      1.0  0.11649  0.26995  0.98083  1.0000
  I   I184      1.0  0.58002  0.27487  0.09357  1.0000
  I   I185      1.0  0.53833  0.26354  0.49017  1.0000
  I   I186      1.0  0.16808  0.79787  0.99376  1.0000
  I   I187      1.0  0.37539  0.69436  0.93149  1.0000
  I   I188      1.0  0.58616  0.13621  0.70514  1.0000
  I   I189      1.0  0.08370  0.32622  0.03185  1.0000
  I   I190      1.0  0.42770  0.81447  0.36255  1.0000
  I   I191      1.0  0.40774  0.37959  0.81536  1.0000
  I   I192      1.0  0.85253  0.02519  0.25282  1.0000
  I   I193      1.0  0.06156  0.80218  0.76207  1.0000
  I   I194      1.0  0.33287  0.40336  0.80547  1.0000
  I   I195      1.0  0.37029  0.04562  0.18257  1.0000
  I   I196      1.0  0.04350  0.46146  0.68592  1.0000
  I   I197      1.0  0.68538  0.34964  0.56900  1.0000
  I   I198      1.0  0.87565  0.84181  0.22696  1.0000
  I   I199      1.0  0.70346  0.96565  0.65629  1.0000
  I   I200      1.0  0.38645  0.39119  0.25224  1.0000
  I   I201      1.0  0.46452  0.16230  0.18821  1.0000
  I   I202      1.0  0.79118  0.13610  0.02107  1.0000
  I   I203      1.0  0.75338  0.90954  0.81949  1.0000
  I   I204      1.0  0.91158  0.66043  0.63001  1.0000
  I   I205      1.0  0.78735  0.43026  0.76496  1.0000
  I   I206      1.0  0.98719  0.97842  0.91432  1.0000
  I   I207      1.0  0.62878  0.63870  0.81544  1.0000
  I   I208      1.0  0.43215  0.45636  0.89591  1.0000
  I   I209      1.0  0.23510  0.72151  0.53338  1.0000
  I   I210      1.0  0.67980  0.68732  0.15924  1.0000
  I   I211      1.0  0.77197  0.76967  0.92963  1.0000
  I   I212      1.0  0.83212  0.04033  0.69841  1.0000
  I   I213      1.0  0.74276  0.95493  0.74751  1.0000
  I   I214      1.0  0.67541  0.74202  0.36314  1.0000
  I   I215      1.0  0.19889  0.07483  0.16874  1.0000
  I   I216      1.0  0.02251  0.83879  0.21937  1.0000
  I   I217      1.0  0.42574  0.29456  0.45692  1.0000
  I   I218      1.0  0.55051  0.90703  0.06037  1.0000
  I   I219      1.0  0.77280  0.22464  0.29101  1.0000
  I   I220      1.0  0.39885  0.10905  0.76585  1.0000
  I   I221      1.0  0.08557  0.84483  0.73244  1.0000
  I   I222      1.0  0.21074  0.01739  0.68887  1.0000
  I   I223      1.0  0.87637  0.80484  0.47124  1.0000
  I   I224      1.0  0.38220  0.85176  0.10159  1.0000
  I   I225      1.0  0.22713  0.66849  0.99807  1.0000
  I   I226      1.0  0.35220  0.25913  0.02155  1.0000
  I   I227      1.0  0.07828  0.35189  0.91524  1.0000
  I   I228      1.0  0.06475  0.23331  0.85145  1.0000
  I   I229      1.0  0.24943  0.04158  0.60840  1.0000
  I   I230      1.0  0.91291  0.16435  0.27567  1.0000
  I   I231      1.0  0.75807  0.57135  0.16911  1.0000
  I   I232      1.0  0.92132  0.03243  0.92497  1.0000
  I   I233      1.0  0.53645  0.07365  0.67928  1.0000
  I   I234      1.0  0.14100  0.85771  0.00824  1.0000
  I   I235      1.0  0.02422  0.09743  0.78053  1.0000
  I   I236      1.0  0.00796  0.63109  0.17481  1.0000
  I   I237      1.0  0.27456  0.52603  0.28322  1.0000
  I   I238      1.0  0.45413  0.67710  0.02405  1.0000
  I   I239      1.0  0.91117  0.38659  0.94499  1.0000
  I   I240      1.0  0.93122  0.06440  0.26796  1.0000
  I   I241      1.0  0.16220  0.02111  0.05672  1.0000
  I   I242      1.0  0.92779  0.10666  0.98936  1.0000
  I   I243      1.0  0.34108  0.04142  0.27974  1.0000
  I   I244      1.0  0.62388  0.28558  0.26425  1.0000
  I   I245      1.0  0.43659  0.68943  0.20569  1.0000
  I   I246      1.0  0.82912  0.88095  0.15242  1.0000
  I   I247      1.0  0.70377  0.90310  0.52420  1.0000
  I   I248      1.0  0.26016  0.51969  0.46819  1.0000
  I   I249      1.0  0.43488  0.10918  0.26466  1.0000
  I   I250      1.0  0.75243  0.19316  0.96350  1.0000
  I   I251      1.0  0.10804  0.44651  0.84135  1.0000
  I   I252      1.0  0.84301  0.77719  0.70173  1.0000
  I   I253      1.0  0.78883  0.37578  0.76006  1.0000
  I   I254      1.0  0.96010  0.03599  0.83482  1.0000
  I   I255      1.0  0.61830  0.68849  0.78329  1.0000
  I   I256      1.0  0.90959  0.74828  0.10006  1.0000
  I   I257      1.0  0.26073  0.66800  0.48661  1.0000
  I   I258      1.0  0.39246  0.93895  0.54398  1.0000
  I   I259      1.0  0.76324  0.70657  0.95232  1.0000
  I   I260      1.0  0.48397  0.55796  0.36790  1.0000
  I   I261      1.0  0.21538  0.56135  0.53760  1.0000
  I   I262      1.0  0.62077  0.80236  0.32699  1.0000
  I   I263      1.0  0.21092  0.08217  0.37115  1.0000
  I   I264      1.0  0.08870  0.79680  0.23771  1.0000
  I   I265      1.0  0.36303  0.33414  0.43559  1.0000
  I   I266      1.0  0.81055  0.91628  0.86974  1.0000
  I   I267      1.0  0.74857  0.23980  0.19284  1.0000
  I   I268      1.0  0.33859  0.00402  0.96817  1.0000
  I   I269      1.0  0.12929  0.75612  0.85032  1.0000
  I   I270      1.0  0.25709  0.93723  0.71331  1.0000
  I   I271      1.0  0.86931  0.83898  0.56207  1.0000
  I   I272      1.0  0.42172  0.86736  0.13301  1.0000
  I   I273      1.0  0.26999  0.63838  0.10970  1.0000
  I   I274      1.0  0.63211  0.45513  0.66773  1.0000
  I   I275      1.0  0.02521  0.38621  0.84670  1.0000
  I   I276      1.0  0.98145  0.26557  0.88609  1.0000
  I   I277      1.0  0.34902  0.21787  0.08667  1.0000
  I   I278      1.0  0.86743  0.23050  0.26755  1.0000
  I   I279      1.0  0.18722  0.30673  0.07806  1.0000
  I   I280      1.0  0.57648  0.33761  0.15360  1.0000
  I   I281      1.0  0.56765  0.08208  0.57685  1.0000
  I   I282      1.0  0.10737  0.80445  0.98449  1.0000
  I   I283      1.0  0.08837  0.04864  0.78211  1.0000
  I   I284      1.0  0.03112  0.58820  0.07294  1.0000
  I   I285      1.0  0.12457  0.28790  0.10964  1.0000
  I   I286      1.0  0.41002  0.66424  0.04943  1.0000
  I   I287      1.0  0.66966  0.19952  0.53814  1.0000
  I   I288      1.0  0.93411  0.00967  0.22411  1.0000
  I   I289      1.0  0.10007  0.05173  0.98242  1.0000
  I   I290      1.0  0.35870  0.40700  0.89863  1.0000
  I   I291      1.0  0.00070  0.06933  0.94772  1.0000
  I   I292      1.0  0.54142  0.30082  0.18191  1.0000
  I   I293      1.0  0.37738  0.69330  0.20365  1.0000
  I   I294      1.0  0.93819  0.82525  0.72136  1.0000
  I   I295      1.0  0.62979  0.93633  0.56110  1.0000
  I   I296      1.0  0.34102  0.37514  0.22226  1.0000
  I   I297      1.0  0.42050  0.16522  0.27604  1.0000
  I   I298      1.0  0.62235  0.36894  0.52753  1.0000
  I   I299      1.0  0.45417  0.49033  0.83633  1.0000
  I   I300      1.0  0.90650  0.73023  0.70041  1.0000
  I   I301      1.0  0.65348  0.60977  0.72176  1.0000
  I   I302      1.0  0.73694  0.50272  0.77155  1.0000
  I   I303      1.0  0.51966  0.61474  0.54255  1.0000
  I   I304      1.0  0.49267  0.96346  0.56516  1.0000
  I   I305      1.0  0.45848  0.47913  0.71912  1.0000
  I   I306      1.0  0.58345  0.25148  0.91664  1.0000
  I   I307      1.0  0.48156  0.50630  0.42425  1.0000
  I   I308      1.0  0.86237  0.98655  0.77949  1.0000
  I   I309      1.0  0.15277  0.50063  0.58352  1.0000
  I   I310      1.0  0.08044  0.10464  0.79718  1.0000
  I   I311      1.0  0.15352  0.12960  0.19320  1.0000
  I   I312      1.0  0.65533  0.18669  0.62993  1.0000
  I   I313      1.0  0.74992  0.18741  0.29709  1.0000
  I   I314      1.0  0.42903  0.27007  0.58194  1.0000
  I   I315      1.0  0.52387  0.93655  0.17918  1.0000
  I   I316      1.0  0.20332  0.97872  0.73674  1.0000
  I   I317      1.0  0.40185  0.95024  0.00011  1.0000
  I   I318      1.0  0.06427  0.79023  0.86630  1.0000
  I   I319      1.0  0.66627  0.73477  0.07009  1.0000
  I   I320      1.0  0.08784  0.48404  0.61733  1.0000
  I   I321      1.0  0.31947  0.94989  0.21706  1.0000
  I   I322      1.0  0.68431  0.40040  0.69734  1.0000
  I   I323      1.0  0.01308  0.33962  0.82015  1.0000
  I   I324      1.0  0.04651  0.25994  0.95695  1.0000
  I   I325      1.0  0.27861  0.05720  0.53796  1.0000
  I   I326      1.0  0.53073  0.25412  0.87668  1.0000
  I   I327      1.0  0.16982  0.29651  0.16382  1.0000
  I   I328      1.0  0.56697  0.59669  0.43649  1.0000
  I   I329      1.0  0.53789  0.28569  0.37372  1.0000
  I   I330      1.0  0.13038  0.82389  0.08232  1.0000
  I   I331      1.0  0.16602  0.27023  0.02383  1.0000
  I   I332      1.0  0.67498  0.38475  0.47349  1.0000
  I   I333      1.0  0.58356  0.08172  0.72645  1.0000
  I   I334      1.0  0.90704  0.98724  0.28316  1.0000
  I   I335      1.0  0.36877  0.85826  0.37040  1.0000
  I   I336      1.0  0.92444  0.38179  0.06769  1.0000
  I   I337      1.0  0.15684  0.91838  0.20063  1.0000
  I   I338      1.0  0.35791  0.44282  0.81720  1.0000
  I   I339      1.0  0.04140  0.01064  0.96247  1.0000
  I   I340      1.0  0.94544  0.29250  0.48533  1.0000
  I   I341      1.0  0.45813  0.40891  0.14570  1.0000
  I   I342      1.0  0.96877  0.81845  0.84244  1.0000
  I   I343      1.0  0.64639  0.96915  0.61864  1.0000
  I   I344      1.0  0.35677  0.36674  0.33199  1.0000
  I   I345      1.0  0.49530  0.13335  0.10664  1.0000
  I   I346      1.0  0.72558  0.82248  0.00142  1.0000
  I   I347      1.0  0.79693  0.13703  0.89835  1.0000
  I   I348      1.0  0.86357  0.72959  0.78813  1.0000
  I   I349      1.0  0.63403  0.65884  0.67071  1.0000
  I   I350      1.0  0.73604  0.39816  0.79893  1.0000
  I   I351      1.0  0.94416  0.99011  0.82274  1.0000
  I   I352      1.0  0.43607  0.94447  0.64065  1.0000
  I   I353      1.0  0.93824  0.77313  0.00982  1.0000
  I   I354      1.0  0.51774  0.29031  0.97038  1.0000
  I   I355      1.0  0.41514  0.60039  0.33936  1.0000
  I   I356      1.0  0.44508  0.57522  0.44177  1.0000
  I   I357      1.0  0.79856  0.98417  0.89901  1.0000
  I   I358      1.0  0.05115  0.84196  0.31403  1.0000
  I   I359      1.0  0.23748  0.08651  0.24239  1.0000
  I   I360      1.0  0.76196  0.15684  0.66505  1.0000
  I   I361      1.0  0.73880  0.22388  0.41001  1.0000
  I   I362      1.0  0.37007  0.29674  0.64950  1.0000
  I   I363      1.0  0.74321  0.96899  0.86918  1.0000
  I   I364      1.0  0.27673  0.93806  0.61083  1.0000
  I   I365      1.0  0.44042  0.13414  0.78362  1.0000
  I   I366      1.0  0.11956  0.75541  0.73377  1.0000
  I   I367      1.0  0.63085  0.75308  0.14710  1.0000
  I   I368      1.0  0.88009  0.31204  0.42172  1.0000
  I   I369      1.0  0.38106  0.92640  0.09248  1.0000
  I   I370      1.0  0.63535  0.43543  0.78162  1.0000
  I   I371      1.0  0.07175  0.33181  0.81020  1.0000
  I   I372      1.0  0.96416  0.21596  0.90171  1.0000
  I   I373      1.0  0.19346  0.08396  0.55421  1.0000
  I   I374      1.0  0.86417  0.17967  0.19363  1.0000
  I   I375      1.0  0.12600  0.34280  0.11521  1.0000
  I   I376      1.0  0.58044  0.35517  0.26698  1.0000
  I   I377      1.0  0.51610  0.24695  0.38270  1.0000
  I   I378      1.0  0.10472  0.85067  0.93391  1.0000
  I   I379      1.0  0.34885  0.48733  0.26068  1.0000
  I   I380      1.0  0.32502  0.67422  0.92560  1.0000
  I   I381      1.0  0.00409  0.65607  0.06812  1.0000
  I   I382      1.0  0.87371  0.06184  0.19848  1.0000
  I   I383      1.0  0.48213  0.61424  0.02046  1.0000
  I   I384      1.0  0.69610  0.20761  0.72261  1.0000
