data_image0
_chemical_formula_structural       Ti96I384
_chemical_formula_sum              "Ti96 I384"
_cell_length_a       44.2575
_cell_length_b       43.9164
_cell_length_c       22.603
_cell_angle_alpha    88.7757
_cell_angle_beta     88.7757
_cell_angle_gamma    62.1586

_space_group_name_H-M_alt    "P 1"
_space_group_IT_number       1

loop_
  _space_group_symop_operation_xyz
  'x, y, z'

loop_
  _atom_site_type_symbol
  _atom_site_label
  _atom_site_symmetry_multiplicity
  _atom_site_fract_x
  _atom_site_fract_y
  _atom_site_fract_z
  _atom_site_occupancy
  Ti  Ti1       1.0  0.29138  0.10406  0.87498  1.0000
  Ti  Ti2       1.0  0.24875  0.05331  0.23962  1.0000
  Ti  Ti3       1.0  0.33010  0.06791  0.53207  1.0000
  Ti  Ti4       1.0  0.18113  0.31919  0.21646  1.0000
  Ti  Ti5       1.0  0.18876  0.30544  0.54013  1.0000
  Ti  Ti6       1.0  0.17876  0.31966  0.86263  1.0000
  Ti  Ti7       1.0  0.11823  0.59403  0.49687  1.0000
  Ti  Ti8       1.0  0.96190  0.70851  0.89120  1.0000
  Ti  Ti9       1.0  0.03524  0.64536  0.18720  1.0000
  Ti  Ti10      1.0  0.05542  0.89450  0.28373  1.0000
  Ti  Ti11      1.0  0.11775  0.81261  0.64633  1.0000
  Ti  Ti12      1.0  0.07307  0.89133  0.96066  1.0000
  Ti  Ti13      1.0  0.50773  0.10864  0.25627  1.0000
  Ti  Ti14      1.0  0.52498  0.09866  0.57289  1.0000
  Ti  Ti15      1.0  0.52894  0.08582  0.90456  1.0000
  Ti  Ti16      1.0  0.34384  0.38934  0.61482  1.0000
  Ti  Ti17      1.0  0.27827  0.47462  0.90263  1.0000
  Ti  Ti18      1.0  0.33759  0.36446  0.26334  1.0000
  Ti  Ti19      1.0  0.37085  0.79000  0.44941  1.0000
  Ti  Ti20      1.0  0.34346  0.67226  0.80572  1.0000
  Ti  Ti21      1.0  0.30639  0.67042  0.37864  1.0000
  Ti  Ti22      1.0  0.22811  0.92985  0.78876  1.0000
  Ti  Ti23      1.0  0.41152  0.88245  0.12927  1.0000
  Ti  Ti24      1.0  0.42419  0.86261  0.78439  1.0000
  Ti  Ti25      1.0  0.63266  0.18934  0.49453  1.0000
  Ti  Ti26      1.0  0.64127  0.18339  0.81314  1.0000
  Ti  Ti27      1.0  0.66422  0.17155  0.16030  1.0000
  Ti  Ti28      1.0  0.61605  0.40941  0.11033  1.0000
  Ti  Ti29      1.0  0.61547  0.40751  0.47274  1.0000
  Ti  Ti30      1.0  0.61272  0.39724  0.79994  1.0000
  Ti  Ti31      1.0  0.65773  0.58808  0.19876  1.0000
  Ti  Ti32      1.0  0.69394  0.55119  0.54691  1.0000
  Ti  Ti33      1.0  0.69449  0.54803  0.87651  1.0000
  Ti  Ti34      1.0  0.71898  0.70008  0.26399  1.0000
  Ti  Ti35      1.0  0.70259  0.73178  0.60274  1.0000
  Ti  Ti36      1.0  0.71179  0.71911  0.93665  1.0000
  Ti  Ti37      1.0  0.85870  0.13234  0.19537  1.0000
  Ti  Ti38      1.0  0.84568  0.12226  0.54403  1.0000
  Ti  Ti39      1.0  0.86922  0.12158  0.86628  1.0000
  Ti  Ti40      1.0  0.95991  0.32638  0.04085  1.0000
  Ti  Ti41      1.0  0.01854  0.25277  0.32905  1.0000
  Ti  Ti42      1.0  0.07464  0.15957  0.65257  1.0000
  Ti  Ti43      1.0  0.96267  0.48621  0.27129  1.0000
  Ti  Ti44      1.0  0.97165  0.51423  0.59636  1.0000
  Ti  Ti45      1.0  0.94381  0.53218  0.90602  1.0000
  Ti  Ti46      1.0  0.78989  0.94066  0.24454  1.0000
  Ti  Ti47      1.0  0.75801  0.91658  0.56876  1.0000
  Ti  Ti48      1.0  0.76302  0.93728  0.87861  1.0000
  Ti  Ti49      1.0  0.27815  0.11569  0.71310  1.0000
  Ti  Ti50      1.0  0.19891  0.06264  0.12106  1.0000
  Ti  Ti51      1.0  0.23745  0.08158  0.43123  1.0000
  Ti  Ti52      1.0  0.13701  0.37604  0.04299  1.0000
  Ti  Ti53      1.0  0.14191  0.36987  0.38423  1.0000
  Ti  Ti54      1.0  0.14502  0.37868  0.69767  1.0000
  Ti  Ti55      1.0  0.02157  0.65016  0.39427  1.0000
  Ti  Ti56      1.0  0.93021  0.74098  0.72519  1.0000
  Ti  Ti57      1.0  0.94223  0.72583  0.07471  1.0000
  Ti  Ti58      1.0  0.00990  0.88275  0.11347  1.0000
  Ti  Ti59      1.0  0.98149  0.90545  0.41486  1.0000
  Ti  Ti60      1.0  0.02923  0.86719  0.78207  1.0000
  Ti  Ti61      1.0  0.46846  0.13072  0.07217  1.0000
  Ti  Ti62      1.0  0.45033  0.14943  0.43549  1.0000
  Ti  Ti63      1.0  0.46777  0.14439  0.74398  1.0000
  Ti  Ti64      1.0  0.31773  0.37374  0.43256  1.0000
  Ti  Ti65      1.0  0.26618  0.47993  0.69471  1.0000
  Ti  Ti66      1.0  0.22248  0.53467  0.03055  1.0000
  Ti  Ti67      1.0  0.31195  0.76427  0.37789  1.0000
  Ti  Ti68      1.0  0.28968  0.66164  0.74244  1.0000
  Ti  Ti69      1.0  0.23138  0.66638  0.30368  1.0000
  Ti  Ti70      1.0  0.32117  0.90629  0.76531  1.0000
  Ti  Ti71      1.0  0.39248  0.81214  0.06361  1.0000
  Ti  Ti72      1.0  0.47208  0.91627  0.20648  1.0000
  Ti  Ti73      1.0  0.59412  0.23235  0.31499  1.0000
  Ti  Ti74      1.0  0.56264  0.24029  0.66701  1.0000
  Ti  Ti75      1.0  0.60656  0.22268  0.00259  1.0000
  Ti  Ti76      1.0  0.54966  0.45708  0.96234  1.0000
  Ti  Ti77      1.0  0.55401  0.46229  0.28010  1.0000
  Ti  Ti78      1.0  0.56146  0.44645  0.64646  1.0000
  Ti  Ti79      1.0  0.61427  0.61175  0.01232  1.0000
  Ti  Ti80      1.0  0.56786  0.65473  0.31594  1.0000
  Ti  Ti81      1.0  0.64495  0.56775  0.70084  1.0000
  Ti  Ti82      1.0  0.65570  0.75316  0.10411  1.0000
  Ti  Ti83      1.0  0.65927  0.75428  0.41443  1.0000
  Ti  Ti84      1.0  0.64686  0.75422  0.77825  1.0000
  Ti  Ti85      1.0  0.86587  0.18030  0.03941  1.0000
  Ti  Ti86      1.0  0.84965  0.17639  0.36838  1.0000
  Ti  Ti87      1.0  0.85644  0.18574  0.70719  1.0000
  Ti  Ti88      1.0  0.96267  0.35991  0.88265  1.0000
  Ti  Ti89      1.0  0.92968  0.33992  0.23745  1.0000
  Ti  Ti90      1.0  0.00533  0.24540  0.52606  1.0000
  Ti  Ti91      1.0  0.88164  0.59776  0.04810  1.0000
  Ti  Ti92      1.0  0.90332  0.53845  0.42577  1.0000
  Ti  Ti93      1.0  0.90487  0.57388  0.73684  1.0000
  Ti  Ti94      1.0  0.73785  0.94749  0.08397  1.0000
  Ti  Ti95      1.0  0.71102  0.97697  0.39241  1.0000
  Ti  Ti96      1.0  0.69043  0.96285  0.72821  1.0000
  I   I1        1.0  0.24838  0.02514  0.04587  1.0000
  I   I2        1.0  0.23847  0.03292  0.35737  1.0000
  I   I3        1.0  0.29001  0.06564  0.62702  1.0000
  I   I4        1.0  0.12271  0.35305  0.27665  1.0000
  I   I5        1.0  0.11325  0.36496  0.59645  1.0000
  I   I6        1.0  0.11563  0.36750  0.94233  1.0000
  I   I7        1.0  0.94082  0.70701  0.62350  1.0000
  I   I8        1.0  0.91777  0.70982  0.97767  1.0000
  I   I9        1.0  0.99578  0.64292  0.29526  1.0000
  I   I10       1.0  0.03710  0.85097  0.35937  1.0000
  I   I11       1.0  0.06530  0.80220  0.71031  1.0000
  I   I12       1.0  0.05465  0.84135  0.01353  1.0000
  I   I13       1.0  0.45137  0.11719  0.33920  1.0000
  I   I14       1.0  0.45473  0.11966  0.64950  1.0000
  I   I15       1.0  0.46696  0.09235  0.98114  1.0000
  I   I16       1.0  0.26491  0.43282  0.62408  1.0000
  I   I17       1.0  0.20754  0.51675  0.90549  1.0000
  I   I18       1.0  0.30834  0.33466  0.35571  1.0000
  I   I19       1.0  0.35916  0.61125  0.73679  1.0000
  I   I20       1.0  0.17449  0.71883  0.33901  1.0000
  I   I21       1.0  0.27531  0.73315  0.42787  1.0000
  I   I22       1.0  0.35368  0.79757  0.12658  1.0000
  I   I23       1.0  0.34651  0.88551  0.11336  1.0000
  I   I24       1.0  0.38303  0.83281  0.75490  1.0000
  I   I25       1.0  0.56853  0.20023  0.56765  1.0000
  I   I26       1.0  0.59365  0.18601  0.89972  1.0000
  I   I27       1.0  0.60255  0.18311  0.22453  1.0000
  I   I28       1.0  0.55553  0.41621  0.19749  1.0000
  I   I29       1.0  0.54448  0.43138  0.52436  1.0000
  I   I30       1.0  0.54685  0.41774  0.85273  1.0000
  I   I31       1.0  0.58932  0.59926  0.23541  1.0000
  I   I32       1.0  0.65257  0.51994  0.61933  1.0000
  I   I33       1.0  0.62811  0.55966  0.92477  1.0000
  I   I34       1.0  0.66323  0.70536  0.33360  1.0000
  I   I35       1.0  0.64706  0.72224  0.67751  1.0000
  I   I36       1.0  0.65171  0.72272  0.00330  1.0000
  I   I37       1.0  0.81731  0.19728  0.27280  1.0000
  I   I38       1.0  0.81253  0.19091  0.60800  1.0000
  I   I39       1.0  0.83531  0.18986  0.94159  1.0000
  I   I40       1.0  0.90363  0.34713  0.11770  1.0000
  I   I41       1.0  0.97329  0.25083  0.41826  1.0000
  I   I42       1.0  0.97391  0.32136  0.79132  1.0000
  I   I43       1.0  0.91054  0.48949  0.35556  1.0000
  I   I44       1.0  0.90093  0.53565  0.64368  1.0000
  I   I45       1.0  0.87263  0.55839  0.96338  1.0000
  I   I46       1.0  0.71356  0.95042  0.28899  1.0000
  I   I47       1.0  0.68987  0.93557  0.62066  1.0000
  I   I48       1.0  0.74505  0.90891  0.97635  1.0000
  I   I49       1.0  0.29681  0.15306  0.78179  1.0000
  I   I50       1.0  0.17604  0.09409  0.24648  1.0000
  I   I51       1.0  0.26326  0.12785  0.47198  1.0000
  I   I52       1.0  0.17965  0.37782  0.13588  1.0000
  I   I53       1.0  0.18231  0.36543  0.47501  1.0000
  I   I54       1.0  0.17140  0.38239  0.80122  1.0000
  I   I55       1.0  0.07101  0.66138  0.46024  1.0000
  I   I56       1.0  0.92665  0.77290  0.84946  1.0000
  I   I57       1.0  0.99142  0.71973  0.16676  1.0000
  I   I58       1.0  0.99397  0.92107  0.21562  1.0000
  I   I59       1.0  0.99227  0.91292  0.52134  1.0000
  I   I60       1.0  0.02252  0.91196  0.86833  1.0000
  I   I61       1.0  0.48244  0.16504  0.17005  1.0000
  I   I62       1.0  0.47788  0.16940  0.53652  1.0000
  I   I63       1.0  0.50664  0.14965  0.85022  1.0000
  I   I64       1.0  0.33909  0.41673  0.49923  1.0000
  I   I65       1.0  0.27839  0.51208  0.79660  1.0000
  I   I66       1.0  0.23841  0.53112  0.13915  1.0000
  I   I67       1.0  0.36417  0.77983  0.32313  1.0000
  I   I68       1.0  0.30130  0.65069  0.86892  1.0000
  I   I69       1.0  0.25969  0.71205  0.28763  1.0000
  I   I70       1.0  0.26990  0.96784  0.79104  1.0000
  I   I71       1.0  0.43353  0.84617  0.03355  1.0000
  I   I72       1.0  0.52799  0.88681  0.26167  1.0000
  I   I73       1.0  0.58633  0.25514  0.42566  1.0000
  I   I74       1.0  0.60004  0.25142  0.75786  1.0000
  I   I75       1.0  0.61972  0.24586  0.10054  1.0000
  I   I76       1.0  0.56999  0.47460  0.06679  1.0000
  I   I77       1.0  0.55740  0.49933  0.37038  1.0000
  I   I78       1.0  0.58496  0.46346  0.74677  1.0000
  I   I79       1.0  0.62325  0.64422  0.10110  1.0000
  I   I80       1.0  0.56664  0.68651  0.40923  1.0000
  I   I81       1.0  0.64676  0.60448  0.80243  1.0000
  I   I82       1.0  0.67328  0.76316  0.22108  1.0000
  I   I83       1.0  0.66395  0.78877  0.50534  1.0000
  I   I84       1.0  0.66376  0.78249  0.88385  1.0000
  I   I85       1.0  0.89682  0.16721  0.15808  1.0000
  I   I86       1.0  0.88938  0.14483  0.46947  1.0000
  I   I87       1.0  0.90229  0.15118  0.79518  1.0000
  I   I88       1.0  0.94574  0.39453  0.00557  1.0000
  I   I89       1.0  0.97235  0.33389  0.32682  1.0000
  I   I90       1.0  0.04704  0.23263  0.63389  1.0000
  I   I91       1.0  0.89659  0.61382  0.14822  1.0000
  I   I92       1.0  0.92453  0.57114  0.50551  1.0000
  I   I93       1.0  0.92267  0.59715  0.84214  1.0000
  I   I94       1.0  0.74984  0.99187  0.15794  1.0000
  I   I95       1.0  0.72830  0.99705  0.49807  1.0000
  I   I96       1.0  0.70342  0.99515  0.83121  1.0000
  I   I97       1.0  0.33765  0.10700  0.62736  1.0000
  I   I98       1.0  0.24034  0.15671  0.93010  1.0000
  I   I99       1.0  0.27427  0.08658  0.31380  1.0000
  I   I100      1.0  0.20212  0.34401  0.95440  1.0000
  I   I101      1.0  0.20517  0.34094  0.31635  1.0000
  I   I102      1.0  0.20923  0.31870  0.64212  1.0000
  I   I103      1.0  0.06294  0.66091  0.28807  1.0000
  I   I104      1.0  0.13779  0.62569  0.57367  1.0000
  I   I105      1.0  0.00423  0.70452  0.97992  1.0000
  I   I106      1.0  0.03069  0.93399  0.03681  1.0000
  I   I107      1.0  0.02833  0.94325  0.36850  1.0000
  I   I108      1.0  0.07344  0.87523  0.69348  1.0000
  I   I109      1.0  0.53740  0.10411  0.01380  1.0000
  I   I110      1.0  0.51080  0.14687  0.36842  1.0000
  I   I111      1.0  0.53006  0.13462  0.67399  1.0000
  I   I112      1.0  0.38232  0.33763  0.36549  1.0000
  I   I113      1.0  0.34275  0.43646  0.68019  1.0000
  I   I114      1.0  0.29109  0.50934  0.99372  1.0000
  I   I115      1.0  0.34960  0.70319  0.32195  1.0000
  I   I116      1.0  0.36510  0.79841  0.56116  1.0000
  I   I117      1.0  0.33245  0.72844  0.86285  1.0000
  I   I118      1.0  0.36307  0.90960  0.84547  1.0000
  I   I119      1.0  0.18273  0.98276  0.73936  1.0000
  I   I120      1.0  0.38684  0.94607  0.08813  1.0000
  I   I121      1.0  0.66978  0.20214  0.26129  1.0000
  I   I122      1.0  0.62536  0.23204  0.59660  1.0000
  I   I123      1.0  0.66520  0.20461  0.90380  1.0000
  I   I124      1.0  0.62128  0.43034  0.89734  1.0000
  I   I125      1.0  0.61978  0.44772  0.20724  1.0000
  I   I126      1.0  0.63025  0.41871  0.59540  1.0000
  I   I127      1.0  0.68698  0.60076  0.96623  1.0000
  I   I128      1.0  0.63610  0.64437  0.27669  1.0000
  I   I129      1.0  0.71149  0.56312  0.66933  1.0000
  I   I130      1.0  0.71899  0.75827  0.03617  1.0000
  I   I131      1.0  0.73022  0.72436  0.36569  1.0000
  I   I132      1.0  0.69881  0.76513  0.70193  1.0000
  I   I133      1.0  0.90299  0.11652  0.97600  1.0000
  I   I134      1.0  0.88672  0.10966  0.31875  1.0000
  I   I135      1.0  0.89270  0.11875  0.65790  1.0000
  I   I136      1.0  0.03997  0.16332  0.74537  1.0000
  I   I137      1.0  0.98530  0.33341  0.14926  1.0000
  I   I138      1.0  0.05991  0.23767  0.42454  1.0000
  I   I139      1.0  0.94920  0.57206  0.99534  1.0000
  I   I140      1.0  0.96684  0.52426  0.36325  1.0000
  I   I141      1.0  0.96777  0.55545  0.68535  1.0000
  I   I142      1.0  0.78239  0.96281  0.99166  1.0000
  I   I143      1.0  0.77446  0.98622  0.32699  1.0000
  I   I144      1.0  0.74481  0.96459  0.66494  1.0000
  I   I145      1.0  0.33443  0.05441  0.78877  1.0000
  I   I146      1.0  0.22087  0.01115  0.20252  1.0000
  I   I147      1.0  0.30612  0.03634  0.45792  1.0000
  I   I148      1.0  0.15912  0.31079  0.09167  1.0000
  I   I149      1.0  0.17153  0.29610  0.42939  1.0000
  I   I150      1.0  0.15610  0.30992  0.76548  1.0000
  I   I151      1.0  0.07941  0.57757  0.41302  1.0000
  I   I152      1.0  0.90854  0.70748  0.80281  1.0000
  I   I153      1.0  0.98732  0.65168  0.10174  1.0000
  I   I154      1.0  0.07004  0.84901  0.17335  1.0000
  I   I155      1.0  0.09685  0.81737  0.54046  1.0000
  I   I156      1.0  0.09506  0.84147  0.85859  1.0000
  I   I157      1.0  0.51292  0.07205  0.15390  1.0000
  I   I158      1.0  0.48997  0.08481  0.49266  1.0000
  I   I159      1.0  0.51766  0.07422  0.77822  1.0000
  I   I160      1.0  0.33175  0.33151  0.52563  1.0000
  I   I161      1.0  0.28001  0.43529  0.80481  1.0000
  I   I162      1.0  0.28298  0.37855  0.20271  1.0000
  I   I163      1.0  0.35271  0.73953  0.47377  1.0000
  I   I164      1.0  0.24696  0.72685  0.75927  1.0000
  I   I165      1.0  0.25995  0.65152  0.42046  1.0000
  I   I166      1.0  0.29515  0.87460  0.83607  1.0000
  I   I167      1.0  0.42868  0.81477  0.18097  1.0000
  I   I168      1.0  0.46906  0.83800  0.69680  1.0000
  I   I169      1.0  0.61607  0.17103  0.39098  1.0000
  I   I170      1.0  0.61568  0.16855  0.70089  1.0000
  I   I171      1.0  0.63243  0.15970  0.06604  1.0000
  I   I172      1.0  0.58258  0.39523  0.02025  1.0000
  I   I173      1.0  0.59696  0.39791  0.36508  1.0000
  I   I174      1.0  0.58584  0.38018  0.70601  1.0000
  I   I175      1.0  0.64522  0.55393  0.10416  1.0000
  I   I176      1.0  0.65391  0.55790  0.46026  1.0000
  I   I177      1.0  0.68587  0.51119  0.76941  1.0000
  I   I178      1.0  0.69804  0.68225  0.14303  1.0000
  I   I179      1.0  0.68990  0.69995  0.50524  1.0000
  I   I180      1.0  0.69102  0.69563  0.83911  1.0000
  I   I181      1.0  0.82044  0.16382  0.10468  1.0000
  I   I182      1.0  0.80458  0.14418  0.45400  1.0000
  I   I183      1.0  0.81891  0.14910  0.78559  1.0000
  I   I184      1.0  0.91523  0.33671  0.94254  1.0000
  I   I185      1.0  0.95903  0.26644  0.26469  1.0000
  I   I186      1.0  0.05364  0.17197  0.53266  1.0000
  I   I187      1.0  0.91623  0.49433  0.19104  1.0000
  I   I188      1.0  0.95689  0.48163  0.51174  1.0000
  I   I189      1.0  0.92867  0.50363  0.80568  1.0000
  I   I190      1.0  0.79157  0.89362  0.15056  1.0000
  I   I191      1.0  0.74183  0.90653  0.46011  1.0000
  I   I192      1.0  0.74061  0.90136  0.80509  1.0000
  I   I193      1.0  0.34342  0.09661  0.93640  1.0000
  I   I194      1.0  0.24290  0.09759  0.15115  1.0000
  I   I195      1.0  0.36948  0.07894  0.45955  1.0000
  I   I196      1.0  0.24434  0.28789  0.16528  1.0000
  I   I197      1.0  0.24862  0.25173  0.51187  1.0000
  I   I198      1.0  0.24284  0.26843  0.84549  1.0000
  I   I199      1.0  0.17765  0.57179  0.44445  1.0000
  I   I200      1.0  0.99392  0.70134  0.77447  1.0000
  I   I201      1.0  0.08305  0.65002  0.12106  1.0000
  I   I202      1.0  0.07723  0.93236  0.21447  1.0000
  I   I203      1.0  0.16670  0.82831  0.64219  1.0000
  I   I204      1.0  0.09706  0.93406  0.92423  1.0000
  I   I205      1.0  0.56131  0.11767  0.22320  1.0000
  I   I206      1.0  0.57337  0.10476  0.51247  1.0000
  I   I207      1.0  0.59597  0.06585  0.88474  1.0000
  I   I208      1.0  0.40600  0.36593  0.57604  1.0000
  I   I209      1.0  0.34810  0.43532  0.88436  1.0000
  I   I210      1.0  0.37377  0.38291  0.18971  1.0000
  I   I211      1.0  0.37547  0.84508  0.40442  1.0000
  I   I212      1.0  0.36658  0.68403  0.70215  1.0000
  I   I213      1.0  0.34101  0.61686  0.31093  1.0000
  I   I214      1.0  0.22125  0.95138  0.90218  1.0000
  I   I215      1.0  0.48824  0.86252  0.12654  1.0000
  I   I216      1.0  0.44510  0.90731  0.79983  1.0000
  I   I217      1.0  0.67908  0.20774  0.45373  1.0000
  I   I218      1.0  0.69274  0.18171  0.74698  1.0000
  I   I219      1.0  0.70908  0.17576  0.09055  1.0000
  I   I220      1.0  0.67227  0.41147  0.07378  1.0000
  I   I221      1.0  0.67157  0.40913  0.43613  1.0000
  I   I222      1.0  0.67832  0.36926  0.76388  1.0000
  I   I223      1.0  0.71567  0.58426  0.16988  1.0000
  I   I224      1.0  0.72438  0.58449  0.49572  1.0000
  I   I225      1.0  0.74961  0.54913  0.82824  1.0000
  I   I226      1.0  0.77260  0.69778  0.21333  1.0000
  I   I227      1.0  0.75893  0.73446  0.57915  1.0000
  I   I228      1.0  0.76545  0.71182  0.88328  1.0000
  I   I229      1.0  0.91095  0.08144  0.14763  1.0000
  I   I230      1.0  0.88798  0.06209  0.50560  1.0000
  I   I231      1.0  0.91487  0.06013  0.83940  1.0000
  I   I232      1.0  0.01439  0.32005  0.96180  1.0000
  I   I233      1.0  0.06645  0.25574  0.26989  1.0000
  I   I234      1.0  0.13342  0.15257  0.67562  1.0000
  I   I235      1.0  0.98525  0.51262  0.18692  1.0000
  I   I236      1.0  0.02432  0.51597  0.54230  1.0000
  I   I237      1.0  0.00316  0.51126  0.85717  1.0000
  I   I238      1.0  0.84775  0.93599  0.20780  1.0000
  I   I239      1.0  0.81779  0.91163  0.55554  1.0000
  I   I240      1.0  0.79648  0.96847  0.82270  1.0000
  I   I241      1.0  0.28592  0.06241  0.95759  1.0000
  I   I242      1.0  0.31095  0.01016  0.21714  1.0000
  I   I243      1.0  0.38379  0.01217  0.57318  1.0000
  I   I244      1.0  0.18351  0.26552  0.26465  1.0000
  I   I245      1.0  0.16476  0.26442  0.59495  1.0000
  I   I246      1.0  0.16446  0.26985  0.91233  1.0000
  I   I247      1.0  0.12827  0.54281  0.57314  1.0000
  I   I248      1.0  0.99369  0.63673  0.88207  1.0000
  I   I249      1.0  0.07259  0.57836  0.18796  1.0000
  I   I250      1.0  0.11621  0.85875  0.32365  1.0000
  I   I251      1.0  0.15460  0.74165  0.64959  1.0000
  I   I252      1.0  0.13248  0.85450  0.01320  1.0000
  I   I253      1.0  0.54901  0.04970  0.30988  1.0000
  I   I254      1.0  0.55564  0.04053  0.62663  1.0000
  I   I255      1.0  0.55166  0.02002  0.92558  1.0000
  I   I256      1.0  0.34117  0.34099  0.69363  1.0000
  I   I257      1.0  0.28417  0.43719  0.99307  1.0000
  I   I258      1.0  0.38146  0.30025  0.22351  1.0000
  I   I259      1.0  0.43246  0.74419  0.43427  1.0000
  I   I260      1.0  0.40265  0.63133  0.86007  1.0000
  I   I261      1.0  0.35618  0.63473  0.45997  1.0000
  I   I262      1.0  0.20696  0.88347  0.78954  1.0000
  I   I263      1.0  0.42398  0.89514  0.25262  1.0000
  I   I264      1.0  0.45960  0.80990  0.84946  1.0000
  I   I265      1.0  0.66904  0.12639  0.52711  1.0000
  I   I266      1.0  0.66756  0.11866  0.85012  1.0000
  I   I267      1.0  0.70082  0.10834  0.19831  1.0000
  I   I268      1.0  0.65056  0.35148  0.15992  1.0000
  I   I269      1.0  0.63691  0.34279  0.49922  1.0000
  I   I270      1.0  0.63277  0.34271  0.87436  1.0000
  I   I271      1.0  0.69101  0.53395  0.26063  1.0000
  I   I272      1.0  0.74798  0.49466  0.52692  1.0000
  I   I273      1.0  0.72309  0.49890  0.94892  1.0000
  I   I274      1.0  0.75713  0.62835  0.28060  1.0000
  I   I275      1.0  0.73669  0.66777  0.64728  1.0000
  I   I276      1.0  0.73860  0.65330  0.97639  1.0000
  I   I277      1.0  0.82263  0.10292  0.22180  1.0000
  I   I278      1.0  0.81646  0.09731  0.61395  1.0000
  I   I279      1.0  0.82689  0.10673  0.92693  1.0000
  I   I280      1.0  0.97811  0.26466  0.06265  1.0000
  I   I281      1.0  0.03513  0.19005  0.31364  1.0000
  I   I282      1.0  0.08719  0.09306  0.62981  1.0000
  I   I283      1.0  0.00542  0.41951  0.26814  1.0000
  I   I284      1.0  0.99815  0.45713  0.65910  1.0000
  I   I285      1.0  0.96393  0.47606  0.97616  1.0000
  I   I286      1.0  0.81924  0.88823  0.31822  1.0000
  I   I287      1.0  0.77243  0.85408  0.59480  1.0000
  I   I288      1.0  0.82293  0.88064  0.90682  1.0000
  I   I289      1.0  0.23254  0.12275  0.79353  1.0000
  I   I290      1.0  0.15559  0.04048  0.09774  1.0000
  I   I291      1.0  0.21037  0.05858  0.51225  1.0000
  I   I292      1.0  0.07622  0.40087  0.08391  1.0000
  I   I293      1.0  0.08571  0.37775  0.43506  1.0000
  I   I294      1.0  0.08795  0.41455  0.75035  1.0000
  I   I295      1.0  0.98852  0.62745  0.45865  1.0000
  I   I296      1.0  0.86301  0.77235  0.69087  1.0000
  I   I297      1.0  0.90573  0.72317  0.16340  1.0000
  I   I298      1.0  0.98748  0.84241  0.15400  1.0000
  I   I299      1.0  0.95004  0.87023  0.44260  1.0000
  I   I300      1.0  0.00378  0.83871  0.85810  1.0000
  I   I301      1.0  0.40663  0.15012  0.11216  1.0000
  I   I302      1.0  0.39063  0.15885  0.46623  1.0000
  I   I303      1.0  0.42452  0.13929  0.81816  1.0000
  I   I304      1.0  0.25307  0.41012  0.43743  1.0000
  I   I305      1.0  0.20332  0.50412  0.71795  1.0000
  I   I306      1.0  0.16483  0.53226  0.04738  1.0000
  I   I307      1.0  0.29045  0.82686  0.43733  1.0000
  I   I308      1.0  0.26482  0.61708  0.75593  1.0000
  I   I309      1.0  0.24384  0.65843  0.18987  1.0000
  I   I310      1.0  0.28109  0.89200  0.67913  1.0000
  I   I311      1.0  0.36461  0.80678  0.96579  1.0000
  I   I312      1.0  0.44076  0.97786  0.26598  1.0000
  I   I313      1.0  0.52534  0.25085  0.32007  1.0000
  I   I314      1.0  0.51992  0.23561  0.74084  1.0000
  I   I315      1.0  0.55103  0.22171  0.04696  1.0000
  I   I316      1.0  0.48753  0.46877  0.98533  1.0000
  I   I317      1.0  0.50053  0.46241  0.33380  1.0000
  I   I318      1.0  0.50007  0.45611  0.68056  1.0000
  I   I319      1.0  0.55530  0.61376  0.04235  1.0000
  I   I320      1.0  0.52350  0.63556  0.36634  1.0000
  I   I321      1.0  0.58760  0.57347  0.75136  1.0000
  I   I322      1.0  0.59949  0.75801  0.14556  1.0000
  I   I323      1.0  0.59414  0.77010  0.44967  1.0000
  I   I324      1.0  0.60405  0.73494  0.83314  1.0000
  I   I325      1.0  0.82711  0.24298  0.07351  1.0000
  I   I326      1.0  0.81302  0.23837  0.41422  1.0000
  I   I327      1.0  0.80941  0.23904  0.74539  1.0000
  I   I328      1.0  0.90537  0.40940  0.85058  1.0000
  I   I329      1.0  0.87632  0.33986  0.29077  1.0000
  I   I330      1.0  0.96554  0.23479  0.59670  1.0000
  I   I331      1.0  0.82231  0.60313  0.09049  1.0000
  I   I332      1.0  0.85527  0.53827  0.49552  1.0000
  I   I333      1.0  0.84323  0.58995  0.76237  1.0000
  I   I334      1.0  0.70024  0.91999  0.11962  1.0000
  I   I335      1.0  0.65615  0.97262  0.42460  1.0000
  I   I336      1.0  0.64557  0.95673  0.79330  1.0000
  I   I337      1.0  0.23994  0.16875  0.65101  1.0000
  I   I338      1.0  0.15968  0.12368  0.07476  1.0000
  I   I339      1.0  0.18597  0.13571  0.38987  1.0000
  I   I340      1.0  0.13935  0.43316  0.01082  1.0000
  I   I341      1.0  0.11573  0.43565  0.37266  1.0000
  I   I342      1.0  0.14510  0.42895  0.63420  1.0000
  I   I343      1.0  0.97800  0.71925  0.40039  1.0000
  I   I344      1.0  0.94109  0.78874  0.67564  1.0000
  I   I345      1.0  0.91967  0.79113  0.06820  1.0000
  I   I346      1.0  0.95020  0.92302  0.07151  1.0000
  I   I347      1.0  0.93282  0.96389  0.38005  1.0000
  I   I348      1.0  0.97779  0.89795  0.71394  1.0000
  I   I349      1.0  0.45141  0.18946  0.01420  1.0000
  I   I350      1.0  0.43045  0.21067  0.38904  1.0000
  I   I351      1.0  0.43420  0.21329  0.72390  1.0000
  I   I352      1.0  0.31103  0.42447  0.33407  1.0000
  I   I353      1.0  0.27545  0.52313  0.62478  1.0000
  I   I354      1.0  0.20168  0.59883  0.00059  1.0000
  I   I355      1.0  0.26849  0.80546  0.30181  1.0000
  I   I356      1.0  0.28571  0.64947  0.62274  1.0000
  I   I357      1.0  0.20967  0.62166  0.32085  1.0000
  I   I358      1.0  0.35083  0.92619  0.68203  1.0000
  I   I359      1.0  0.43751  0.74821  0.05379  1.0000
  I   I360      1.0  0.47875  0.94913  0.10786  1.0000
  I   I361      1.0  0.58829  0.28475  0.25398  1.0000
  I   I362      1.0  0.52509  0.30184  0.62787  1.0000
  I   I363      1.0  0.58324  0.27754  0.93348  1.0000
  I   I364      1.0  0.53772  0.51619  0.91371  1.0000
  I   I365      1.0  0.52329  0.52372  0.22938  1.0000
  I   I366      1.0  0.54963  0.49804  0.58694  1.0000
  I   I367      1.0  0.58885  0.66396  0.93948  1.0000
  I   I368      1.0  0.52955  0.70789  0.24375  1.0000
  I   I369      1.0  0.63130  0.61447  0.60663  1.0000
  I   I370      1.0  0.62615  0.81716  0.07565  1.0000
  I   I371      1.0  0.63324  0.81247  0.35427  1.0000
  I   I372      1.0  0.59841  0.81536  0.74637  1.0000
  I   I373      1.0  0.91744  0.19220  0.98690  1.0000
  I   I374      1.0  0.89867  0.19139  0.32829  1.0000
  I   I375      1.0  0.89811  0.20158  0.64576  1.0000
  I   I376      1.0  0.99440  0.39553  0.85592  1.0000
  I   I377      1.0  0.90839  0.40567  0.23685  1.0000
  I   I378      1.0  0.97876  0.31388  0.54835  1.0000
  I   I379      1.0  0.85430  0.65637  0.98457  1.0000
  I   I380      1.0  0.86932  0.59884  0.36910  1.0000
  I   I381      1.0  0.89603  0.63151  0.68877  1.0000
  I   I382      1.0  0.68578  0.00329  0.03754  1.0000
  I   I383      1.0  0.67736  0.04250  0.36192  1.0000
  I   I384      1.0  0.64875  0.02313  0.68195  1.0000
