data_image0
_chemical_formula_structural       Ti96I384
_chemical_formula_sum              "Ti96 I384"
_cell_length_a       54.4775
_cell_length_b       54.7779
_cell_length_c       26.4056
_cell_angle_alpha    88.7757
_cell_angle_beta     88.7757
_cell_angle_gamma    62.1586

_space_group_name_H-M_alt    "P 1"
_space_group_IT_number       1

loop_
  _space_group_symop_operation_xyz
  'x, y, z'

loop_
  _atom_site_type_symbol
  _atom_site_label
  _atom_site_symmetry_multiplicity
  _atom_site_fract_x
  _atom_site_fract_y
  _atom_site_fract_z
  _atom_site_occupancy
  Ti  Ti1       1.0  0.64251  0.68519  0.27144  1.0000
  Ti  Ti2       1.0  0.85690  0.13952  0.30876  1.0000
  Ti  Ti3       1.0  0.55401  0.79212  0.24230  1.0000
  Ti  Ti4       1.0  0.25028  0.07944  0.63298  1.0000
  Ti  Ti5       1.0  0.02229  0.23196  0.37406  1.0000
  Ti  Ti6       1.0  0.16606  0.19918  0.86563  1.0000
  Ti  Ti7       1.0  0.99383  0.90668  0.34848  1.0000
  Ti  Ti8       1.0  0.06956  0.05348  0.67170  1.0000
  Ti  Ti9       1.0  0.90789  0.86803  0.74240  1.0000
  Ti  Ti10      1.0  0.43536  0.82050  0.02161  1.0000
  Ti  Ti11      1.0  0.03302  0.58639  0.02382  1.0000
  Ti  Ti12      1.0  0.91925  0.67823  0.23672  1.0000
  Ti  Ti13      1.0  0.40258  0.19128  0.52498  1.0000
  Ti  Ti14      1.0  0.26731  0.17335  0.36006  1.0000
  Ti  Ti15      1.0  0.30225  0.07994  0.04923  1.0000
  Ti  Ti16      1.0  0.15831  0.76670  0.82447  1.0000
  Ti  Ti17      1.0  0.24484  0.69220  0.08620  1.0000
  Ti  Ti18      1.0  0.16004  0.49047  0.06037  1.0000
  Ti  Ti19      1.0  0.64120  0.66134  0.56409  1.0000
  Ti  Ti20      1.0  0.81989  0.81815  0.89149  1.0000
  Ti  Ti21      1.0  0.24409  0.56913  0.51960  1.0000
  Ti  Ti22      1.0  0.50837  0.90918  0.51955  1.0000
  Ti  Ti23      1.0  0.77398  0.88082  0.38098  1.0000
  Ti  Ti24      1.0  0.43291  0.00314  0.61438  1.0000
  Ti  Ti25      1.0  0.30288  0.21491  0.89424  1.0000
  Ti  Ti26      1.0  0.25236  0.37817  0.91103  1.0000
  Ti  Ti27      1.0  0.39966  0.54243  0.81959  1.0000
  Ti  Ti28      1.0  0.46957  0.66927  0.96494  1.0000
  Ti  Ti29      1.0  0.64091  0.45830  0.78206  1.0000
  Ti  Ti30      1.0  0.77273  0.46288  0.68447  1.0000
  Ti  Ti31      1.0  0.79492  0.41269  0.23435  1.0000
  Ti  Ti32      1.0  0.80913  0.28406  0.54660  1.0000
  Ti  Ti33      1.0  0.96218  0.46197  0.94880  1.0000
  Ti  Ti34      1.0  0.98307  0.77882  0.99718  1.0000
  Ti  Ti35      1.0  0.71038  0.72394  0.01638  1.0000
  Ti  Ti36      1.0  0.90466  0.59860  0.73808  1.0000
  Ti  Ti37      1.0  0.61075  0.24806  0.25634  1.0000
  Ti  Ti38      1.0  0.46470  0.33324  0.37730  1.0000
  Ti  Ti39      1.0  0.54566  0.39819  0.00496  1.0000
  Ti  Ti40      1.0  0.11410  0.00088  0.18753  1.0000
  Ti  Ti41      1.0  0.71993  0.20147  0.51213  1.0000
  Ti  Ti42      1.0  0.28050  0.80846  0.63521  1.0000
  Ti  Ti43      1.0  0.83873  0.19457  0.96758  1.0000
  Ti  Ti44      1.0  0.95639  0.45438  0.49038  1.0000
  Ti  Ti45      1.0  0.02199  0.50883  0.47931  1.0000
  Ti  Ti46      1.0  0.67729  0.04602  0.41162  1.0000
  Ti  Ti47      1.0  0.61749  0.97540  0.11725  1.0000
  Ti  Ti48      1.0  0.45367  0.25449  0.81575  1.0000
  Ti  Ti49      1.0  0.61098  0.77190  0.34177  1.0000
  Ti  Ti50      1.0  0.82046  0.09795  0.22277  1.0000
  Ti  Ti51      1.0  0.95348  0.09075  0.27491  1.0000
  Ti  Ti52      1.0  0.23640  0.04451  0.50380  1.0000
  Ti  Ti53      1.0  0.02520  0.25352  0.25256  1.0000
  Ti  Ti54      1.0  0.09875  0.20817  0.84761  1.0000
  Ti  Ti55      1.0  0.99203  0.85295  0.31953  1.0000
  Ti  Ti56      1.0  0.00022  0.07853  0.61413  1.0000
  Ti  Ti57      1.0  0.94447  0.89544  0.68000  1.0000
  Ti  Ti58      1.0  0.40958  0.78684  0.13388  1.0000
  Ti  Ti59      1.0  0.42619  0.86538  0.88287  1.0000
  Ti  Ti60      1.0  0.96337  0.62638  0.11461  1.0000
  Ti  Ti61      1.0  0.25885  0.04524  0.14664  1.0000
  Ti  Ti62      1.0  0.38863  0.18111  0.38300  1.0000
  Ti  Ti63      1.0  0.34281  0.10597  0.30318  1.0000
  Ti  Ti64      1.0  0.15940  0.43216  0.13633  1.0000
  Ti  Ti65      1.0  0.19432  0.71202  0.95010  1.0000
  Ti  Ti66      1.0  0.12314  0.75263  0.59596  1.0000
  Ti  Ti67      1.0  0.61625  0.66654  0.68761  1.0000
  Ti  Ti68      1.0  0.75101  0.86107  0.93438  1.0000
  Ti  Ti69      1.0  0.20023  0.59155  0.62763  1.0000
  Ti  Ti70      1.0  0.49793  0.98450  0.54626  1.0000
  Ti  Ti71      1.0  0.85431  0.80955  0.34538  1.0000
  Ti  Ti72      1.0  0.77724  0.87901  0.53867  1.0000
  Ti  Ti73      1.0  0.36416  0.59763  0.84688  1.0000
  Ti  Ti74      1.0  0.28209  0.28897  0.84084  1.0000
  Ti  Ti75      1.0  0.22169  0.44006  0.83075  1.0000
  Ti  Ti76      1.0  0.76418  0.54086  0.68757  1.0000
  Ti  Ti77      1.0  0.49288  0.68276  0.85149  1.0000
  Ti  Ti78      1.0  0.70543  0.47623  0.80205  1.0000
  Ti  Ti79      1.0  0.92090  0.44111  0.98339  1.0000
  Ti  Ti80      1.0  0.85686  0.34096  0.16800  1.0000
  Ti  Ti81      1.0  0.77656  0.31148  0.65516  1.0000
  Ti  Ti82      1.0  0.92116  0.85551  0.04178  1.0000
  Ti  Ti83      1.0  0.64481  0.73120  0.95985  1.0000
  Ti  Ti84      1.0  0.84809  0.63115  0.65263  1.0000
  Ti  Ti85      1.0  0.64157  0.17189  0.17720  1.0000
  Ti  Ti86      1.0  0.53841  0.25803  0.32874  1.0000
  Ti  Ti87      1.0  0.51779  0.43318  0.13116  1.0000
  Ti  Ti88      1.0  0.16004  0.97563  0.32305  1.0000
  Ti  Ti89      1.0  0.69751  0.23306  0.67198  1.0000
  Ti  Ti90      1.0  0.24717  0.88999  0.58928  1.0000
  Ti  Ti91      1.0  0.07266  0.49481  0.60220  1.0000
  Ti  Ti92      1.0  0.76904  0.27023  0.00440  1.0000
  Ti  Ti93      1.0  0.97255  0.48248  0.36610  1.0000
  Ti  Ti94      1.0  0.51810  0.20673  0.74729  1.0000
  Ti  Ti95      1.0  0.72567  0.07876  0.41275  1.0000
  Ti  Ti96      1.0  0.57550  0.92801  0.06459  1.0000
  I   I1        1.0  0.77232  0.11309  0.18718  1.0000
  I   I2        1.0  0.84158  0.19632  0.32136  1.0000
  I   I3        1.0  0.60743  0.72036  0.34675  1.0000
  I   I4        1.0  0.04880  0.19837  0.25834  1.0000
  I   I5        1.0  0.07291  0.17837  0.87679  1.0000
  I   I6        1.0  0.13458  0.19748  0.95970  1.0000
  I   I7        1.0  0.95741  0.11965  0.58031  1.0000
  I   I8        1.0  0.12614  0.03796  0.64934  1.0000
  I   I9        1.0  0.93394  0.81363  0.74000  1.0000
  I   I10       1.0  0.47334  0.83754  0.02020  1.0000
  I   I11       1.0  0.01465  0.57432  0.11840  1.0000
  I   I12       1.0  0.38660  0.75707  0.10219  1.0000
  I   I13       1.0  0.38098  0.15571  0.47029  1.0000
  I   I14       1.0  0.37577  0.10082  0.23122  1.0000
  I   I15       1.0  0.31059  0.04657  0.13070  1.0000
  I   I16       1.0  0.14459  0.75441  0.92783  1.0000
  I   I17       1.0  0.17250  0.71313  0.58509  1.0000
  I   I18       1.0  0.20804  0.38033  0.11521  1.0000
  I   I19       1.0  0.71666  0.86548  0.85932  1.0000
  I   I20       1.0  0.18056  0.59763  0.53778  1.0000
  I   I21       1.0  0.22479  0.56538  0.72063  1.0000
  I   I22       1.0  0.89505  0.82188  0.34913  1.0000
  I   I23       1.0  0.83457  0.85416  0.42036  1.0000
  I   I24       1.0  0.49673  0.99537  0.64137  1.0000
  I   I25       1.0  0.25669  0.25689  0.84213  1.0000
  I   I26       1.0  0.23164  0.38540  0.81144  1.0000
  I   I27       1.0  0.37195  0.59415  0.94821  1.0000
  I   I28       1.0  0.50946  0.72069  0.81679  1.0000
  I   I29       1.0  0.67898  0.44625  0.86125  1.0000
  I   I30       1.0  0.79194  0.49824  0.75322  1.0000
  I   I31       1.0  0.76467  0.46200  0.18558  1.0000
  I   I32       1.0  0.81944  0.29598  0.71292  1.0000
  I   I33       1.0  0.97121  0.43201  0.04167  1.0000
  I   I34       1.0  0.71994  0.76521  0.02499  1.0000
  I   I35       1.0  0.90387  0.63875  0.67756  1.0000
  I   I36       1.0  0.91219  0.90480  0.04670  1.0000
  I   I37       1.0  0.58860  0.25972  0.35407  1.0000
  I   I38       1.0  0.46963  0.47375  0.10946  1.0000
  I   I39       1.0  0.68243  0.12227  0.20897  1.0000
  I   I40       1.0  0.73664  0.21165  0.73751  1.0000
  I   I41       1.0  0.22944  0.92543  0.66380  1.0000
  I   I42       1.0  0.13214  0.97245  0.39803  1.0000
  I   I43       1.0  0.78094  0.21462  0.02166  1.0000
  I   I44       1.0  0.92221  0.49201  0.39775  1.0000
  I   I45       1.0  0.98935  0.56263  0.45738  1.0000
  I   I46       1.0  0.65364  0.04976  0.32014  1.0000
  I   I47       1.0  0.67263  0.94302  0.13323  1.0000
  I   I48       1.0  0.46903  0.26617  0.72238  1.0000
  I   I49       1.0  0.60326  0.68509  0.21992  1.0000
  I   I50       1.0  0.81214  0.15018  0.24348  1.0000
  I   I51       1.0  0.99842  0.08949  0.31815  1.0000
  I   I52       1.0  0.19855  0.08004  0.44091  1.0000
  I   I53       1.0  0.04024  0.27564  0.33189  1.0000
  I   I54       1.0  0.06293  0.25684  0.88613  1.0000
  I   I55       1.0  0.97678  0.87150  0.41086  1.0000
  I   I56       1.0  0.02088  0.05551  0.51841  1.0000
  I   I57       1.0  0.89509  0.92631  0.73767  1.0000
  I   I58       1.0  0.40014  0.88791  0.96322  1.0000
  I   I59       1.0  0.43939  0.90474  0.85835  1.0000
  I   I60       1.0  0.92003  0.67580  0.13623  1.0000
  I   I61       1.0  0.45189  0.15840  0.49271  1.0000
  I   I62       1.0  0.43233  0.14514  0.33819  1.0000
  I   I63       1.0  0.21987  0.17102  0.38129  1.0000
  I   I64       1.0  0.17196  0.76127  0.73042  1.0000
  I   I65       1.0  0.25196  0.67942  0.98885  1.0000
  I   I66       1.0  0.09173  0.75156  0.52716  1.0000
  I   I67       1.0  0.58395  0.65144  0.64539  1.0000
  I   I68       1.0  0.84734  0.79513  0.80964  1.0000
  I   I69       1.0  0.23745  0.55779  0.42662  1.0000
  I   I70       1.0  0.48283  0.95778  0.45915  1.0000
  I   I71       1.0  0.79949  0.82298  0.35195  1.0000
  I   I72       1.0  0.82050  0.83034  0.56784  1.0000
  I   I73       1.0  0.43523  0.50853  0.88899  1.0000
  I   I74       1.0  0.30358  0.32765  0.86749  1.0000
  I   I75       1.0  0.24646  0.43257  0.74450  1.0000
  I   I76       1.0  0.49626  0.64115  0.04620  1.0000
  I   I77       1.0  0.53533  0.65829  0.92089  1.0000
  I   I78       1.0  0.71820  0.50934  0.72293  1.0000
  I   I79       1.0  0.90651  0.41806  0.05288  1.0000
  I   I80       1.0  0.85064  0.29790  0.20831  1.0000
  I   I81       1.0  0.78902  0.25213  0.61029  1.0000
  I   I82       1.0  0.03405  0.77150  0.99356  1.0000
  I   I83       1.0  0.72132  0.71245  0.91903  1.0000
  I   I84       1.0  0.85014  0.63222  0.76502  1.0000
  I   I85       1.0  0.63515  0.18440  0.28159  1.0000
  I   I86       1.0  0.49095  0.26742  0.28623  1.0000
  I   I87       1.0  0.50957  0.42936  0.22359  1.0000
  I   I88       1.0  0.05775  0.03559  0.15973  1.0000
  I   I89       1.0  0.72343  0.22104  0.42406  1.0000
  I   I90       1.0  0.30000  0.83493  0.69208  1.0000
  I   I91       1.0  0.07106  0.46580  0.67702  1.0000
  I   I92       1.0  0.81324  0.19338  0.89008  1.0000
  I   I93       1.0  0.02948  0.48097  0.38002  1.0000
  I   I94       1.0  0.55801  0.15849  0.75198  1.0000
  I   I95       1.0  0.75811  0.08303  0.48010  1.0000
  I   I96       1.0  0.52264  0.95135  0.05083  1.0000
  I   I97       1.0  0.51205  0.83964  0.25732  1.0000
  I   I98       1.0  0.69030  0.64871  0.23877  1.0000
  I   I99       1.0  0.89921  0.11905  0.22908  1.0000
  I   I100      1.0  0.27902  0.00850  0.46149  1.0000
  I   I101      1.0  0.19504  0.09542  0.61967  1.0000
  I   I102      1.0  0.99178  0.20861  0.39106  1.0000
  I   I103      1.0  0.94752  0.85531  0.27565  1.0000
  I   I104      1.0  0.04014  0.86339  0.37478  1.0000
  I   I105      1.0  0.97685  0.88451  0.60216  1.0000
  I   I106      1.0  0.90642  0.73009  0.22030  1.0000
  I   I107      1.0  0.44544  0.80869  0.92541  1.0000
  I   I108      1.0  0.92756  0.61676  0.05715  1.0000
  I   I109      1.0  0.28608  0.01270  0.22983  1.0000
  I   I110      1.0  0.41045  0.23411  0.53602  1.0000
  I   I111      1.0  0.29015  0.18350  0.44065  1.0000
  I   I112      1.0  0.20973  0.45096  0.07152  1.0000
  I   I113      1.0  0.19762  0.69230  0.86062  1.0000
  I   I114      1.0  0.29073  0.68592  0.10966  1.0000
  I   I115      1.0  0.61676  0.70857  0.61286  1.0000
  I   I116      1.0  0.62562  0.63554  0.76528  1.0000
  I   I117      1.0  0.78371  0.86061  0.82620  1.0000
  I   I118      1.0  0.47358  0.95004  0.59162  1.0000
  I   I119      1.0  0.47087  0.89456  0.47741  1.0000
  I   I120      1.0  0.74995  0.85992  0.46962  1.0000
  I   I121      1.0  0.43459  0.52002  0.74034  1.0000
  I   I122      1.0  0.29789  0.25876  0.94477  1.0000
  I   I123      1.0  0.27040  0.41543  0.87547  1.0000
  I   I124      1.0  0.77831  0.49732  0.61069  1.0000
  I   I125      1.0  0.47426  0.71473  0.95418  1.0000
  I   I126      1.0  0.68220  0.46792  0.72053  1.0000
  I   I127      1.0  0.90914  0.49709  0.97973  1.0000
  I   I128      1.0  0.83787  0.36625  0.27387  1.0000
  I   I129      1.0  0.82601  0.31488  0.59007  1.0000
  I   I130      1.0  0.87461  0.57246  0.70452  1.0000
  I   I131      1.0  0.97852  0.83276  0.00433  1.0000
  I   I132      1.0  0.63736  0.77173  0.89027  1.0000
  I   I133      1.0  0.55067  0.45487  0.09413  1.0000
  I   I134      1.0  0.56510  0.24295  0.22155  1.0000
  I   I135      1.0  0.42339  0.34923  0.31359  1.0000
  I   I136      1.0  0.32706  0.76761  0.59872  1.0000
  I   I137      1.0  0.20764  0.93453  0.34416  1.0000
  I   I138      1.0  0.69889  0.17440  0.46838  1.0000
  I   I139      1.0  0.06619  0.51934  0.46533  1.0000
  I   I140      1.0  0.72438  0.27794  0.95656  1.0000
  I   I141      1.0  0.99095  0.42952  0.40045  1.0000
  I   I142      1.0  0.44337  0.30241  0.84916  1.0000
  I   I143      1.0  0.73195  0.02712  0.37536  1.0000
  I   I144      1.0  0.61518  0.95161  0.02451  1.0000
  I   I145      1.0  0.55057  0.77735  0.34476  1.0000
  I   I146      1.0  0.84206  0.13481  0.40223  1.0000
  I   I147      1.0  0.57399  0.80498  0.16181  1.0000
  I   I148      1.0  0.21960  0.00632  0.51633  1.0000
  I   I149      1.0  0.98949  0.25935  0.18141  1.0000
  I   I150      1.0  0.14499  0.22443  0.78087  1.0000
  I   I151      1.0  0.94687  0.92920  0.29190  1.0000
  I   I152      1.0  0.08019  0.09167  0.72228  1.0000
  I   I153      1.0  0.97344  0.85453  0.74498  1.0000
  I   I154      1.0  0.42878  0.82478  0.13506  1.0000
  I   I155      1.0  0.07091  0.53561  0.02037  1.0000
  I   I156      1.0  0.99760  0.64322  0.05699  1.0000
  I   I157      1.0  0.27279  0.01206  0.06635  1.0000
  I   I158      1.0  0.29815  0.15349  0.27175  1.0000
  I   I159      1.0  0.27321  0.09253  0.96752  1.0000
  I   I160      1.0  0.15991  0.49339  0.96694  1.0000
  I   I161      1.0  0.17927  0.67790  0.98980  1.0000
  I   I162      1.0  0.14568  0.48348  0.16616  1.0000
  I   I163      1.0  0.59971  0.67917  0.50123  1.0000
  I   I164      1.0  0.80280  0.85645  0.96788  1.0000
  I   I165      1.0  0.30110  0.54591  0.49136  1.0000
  I   I166      1.0  0.54377  0.93895  0.54118  1.0000
  I   I167      1.0  0.79378  0.89438  0.30374  1.0000
  I   I168      1.0  0.39760  0.98638  0.58328  1.0000
  I   I169      1.0  0.27304  0.20570  0.96693  1.0000
  I   I170      1.0  0.24075  0.32870  0.90685  1.0000
  I   I171      1.0  0.42464  0.57206  0.83928  1.0000
  I   I172      1.0  0.81435  0.53603  0.66119  1.0000
  I   I173      1.0  0.64980  0.40704  0.76209  1.0000
  I   I174      1.0  0.76556  0.43464  0.76722  1.0000
  I   I175      1.0  0.78107  0.37561  0.20399  1.0000
  I   I176      1.0  0.74852  0.36637  0.65139  1.0000
  I   I177      1.0  0.97286  0.50222  0.92556  1.0000
  I   I178      1.0  0.92572  0.81285  0.96564  1.0000
  I   I179      1.0  0.67917  0.69000  0.03007  1.0000
  I   I180      1.0  0.94796  0.55579  0.69897  1.0000
  I   I181      1.0  0.65998  0.24162  0.27367  1.0000
  I   I182      1.0  0.51364  0.31816  0.31164  1.0000
  I   I183      1.0  0.59151  0.39784  0.97559  1.0000
  I   I184      1.0  0.13030  0.03640  0.14777  1.0000
  I   I185      1.0  0.77412  0.16976  0.53532  1.0000
  I   I186      1.0  0.23254  0.91425  0.50868  1.0000
  I   I187      1.0  0.82973  0.23662  0.04472  1.0000
  I   I188      1.0  0.00841  0.42444  0.52636  1.0000
  I   I189      1.0  0.97788  0.49444  0.47642  1.0000
  I   I190      1.0  0.62462  0.08455  0.43861  1.0000
  I   I191      1.0  0.60511  0.00256  0.19827  1.0000
  I   I192      1.0  0.46890  0.21793  0.88755  1.0000
  I   I193      1.0  0.65039  0.64916  0.34957  1.0000
  I   I194      1.0  0.86406  0.08674  0.30737  1.0000
  I   I195      1.0  0.57834  0.82458  0.32522  1.0000
  I   I196      1.0  0.24916  0.12525  0.65756  1.0000
  I   I197      1.0  0.07663  0.20224  0.38431  1.0000
  I   I198      1.0  0.18851  0.21844  0.93155  1.0000
  I   I199      1.0  0.96466  0.94409  0.41702  1.0000
  I   I200      1.0  0.97452  0.05087  0.65043  1.0000
  I   I201      1.0  0.85663  0.87525  0.77127  1.0000
  I   I202      1.0  0.38406  0.82435  0.03839  1.0000
  I   I203      1.0  0.99512  0.59152  0.95887  1.0000
  I   I204      1.0  0.94123  0.66084  0.32284  1.0000
  I   I205      1.0  0.39097  0.18860  0.62114  1.0000
  I   I206      1.0  0.25315  0.22678  0.34045  1.0000
  I   I207      1.0  0.30210  0.12681  0.04422  1.0000
  I   I208      1.0  0.10962  0.77017  0.80831  1.0000
  I   I209      1.0  0.24266  0.64518  0.11198  1.0000
  I   I210      1.0  0.15450  0.53782  0.08966  1.0000
  I   I211      1.0  0.68193  0.66648  0.52481  1.0000
  I   I212      1.0  0.77981  0.80334  0.90375  1.0000
  I   I213      1.0  0.24620  0.53094  0.58353  1.0000
  I   I214      1.0  0.52626  0.87648  0.59651  1.0000
  I   I215      1.0  0.72398  0.91065  0.34878  1.0000
  I   I216      1.0  0.43499  0.99534  0.71870  1.0000
  I   I217      1.0  0.31531  0.17333  0.82696  1.0000
  I   I218      1.0  0.27924  0.36088  0.99515  1.0000
  I   I219      1.0  0.34846  0.65045  0.82776  1.0000
  I   I220      1.0  0.42035  0.68118  0.98699  1.0000
  I   I221      1.0  0.60183  0.47767  0.85051  1.0000
  I   I222      1.0  0.74599  0.44581  0.62081  1.0000
  I   I223      1.0  0.83937  0.39498  0.16219  1.0000
  I   I224      1.0  0.81474  0.28301  0.44660  1.0000
  I   I225      1.0  0.01272  0.42711  0.91291  1.0000
  I   I226      1.0  0.99630  0.73298  0.94528  1.0000
  I   I227      1.0  0.74391  0.69006  0.07898  1.0000
  I   I228      1.0  0.86906  0.60082  0.56403  1.0000
  I   I229      1.0  0.62962  0.22831  0.14899  1.0000
  I   I230      1.0  0.47837  0.36958  0.40985  1.0000
  I   I231      1.0  0.49891  0.40585  0.06190  1.0000
  I   I232      1.0  0.11045  0.97889  0.10504  1.0000
  I   I233      1.0  0.65011  0.23686  0.70220  1.0000
  I   I234      1.0  0.29883  0.88294  0.58124  1.0000
  I   I235      1.0  0.86379  0.14505  0.00399  1.0000
  I   I236      1.0  0.92585  0.49127  0.56310  1.0000
  I   I237      1.0  0.06308  0.45795  0.52638  1.0000
  I   I238      1.0  0.67681  0.00065  0.44011  1.0000
  I   I239      1.0  0.61923  0.01285  0.05748  1.0000
  I   I240      1.0  0.40536  0.25846  0.78882  1.0000
  I   I241      1.0  0.62529  0.74459  0.23530  1.0000
  I   I242      1.0  0.91358  0.11788  0.34378  1.0000
  I   I243      1.0  0.52513  0.76649  0.23043  1.0000
  I   I244      1.0  0.25030  0.08866  0.52249  1.0000
  I   I245      1.0  0.97558  0.27398  0.32380  1.0000
  I   I246      1.0  0.21379  0.16349  0.81760  1.0000
  I   I247      1.0  0.01227  0.94093  0.31020  1.0000
  I   I248      1.0  0.05870  0.01224  0.64911  1.0000
  I   I249      1.0  0.90686  0.86693  0.84460  1.0000
  I   I250      1.0  0.45865  0.76522  0.04636  1.0000
  I   I251      1.0  0.05847  0.60584  0.96497  1.0000
  I   I252      1.0  0.86751  0.69116  0.25378  1.0000
  I   I253      1.0  0.36540  0.22866  0.45094  1.0000
  I   I254      1.0  0.38590  0.09084  0.37094  1.0000
  I   I255      1.0  0.35154  0.05122  0.00454  1.0000
  I   I256      1.0  0.14223  0.81848  0.84784  1.0000
  I   I257      1.0  0.21937  0.71413  0.17474  1.0000
  I   I258      1.0  0.13192  0.45808  0.05679  1.0000
  I   I259      1.0  0.67037  0.63997  0.65963  1.0000
  I   I260      1.0  0.73562  0.91345  0.93427  1.0000
  I   I261      1.0  0.24942  0.59939  0.59346  1.0000
  I   I262      1.0  0.55164  0.87518  0.46265  1.0000
  I   I263      1.0  0.76092  0.91965  0.44905  1.0000
  I   I264      1.0  0.40167  0.05491  0.64925  1.0000
  I   I265      1.0  0.34510  0.17267  0.93726  1.0000
  I   I266      1.0  0.20768  0.41296  0.95030  1.0000
  I   I267      1.0  0.35279  0.54664  0.88024  1.0000
  I   I268      1.0  0.43672  0.70567  0.85373  1.0000
  I   I269      1.0  0.60901  0.48425  0.70919  1.0000
  I   I270      1.0  0.81917  0.42611  0.64228  1.0000
  I   I271      1.0  0.79057  0.43443  0.32292  1.0000
  I   I272      1.0  0.86019  0.24311  0.54732  1.0000
  I   I273      1.0  0.94145  0.46501  0.85227  1.0000
  I   I274      1.0  0.98870  0.76452  0.09353  1.0000
  I   I275      1.0  0.65645  0.76513  0.01762  1.0000
  I   I276      1.0  0.92591  0.59559  0.82577  1.0000
  I   I277      1.0  0.59408  0.29446  0.20967  1.0000
  I   I278      1.0  0.43341  0.31852  0.43651  1.0000
  I   I279      1.0  0.55198  0.35124  0.96689  1.0000
  I   I280      1.0  0.10447  0.01800  0.28672  1.0000
  I   I281      1.0  0.71566  0.18306  0.61046  1.0000
  I   I282      1.0  0.25759  0.78983  0.70926  1.0000
  I   I283      1.0  0.78756  0.27762  0.91375  1.0000
  I   I284      1.0  0.93743  0.42346  0.52129  1.0000
  I   I285      1.0  0.01253  0.52506  0.57860  1.0000
  I   I286      1.0  0.70254  0.05319  0.50373  1.0000
  I   I287      1.0  0.57888  0.95396  0.15112  1.0000
  I   I288      1.0  0.46705  0.20410  0.73781  1.0000
  I   I289      1.0  0.65925  0.76781  0.32588  1.0000
  I   I290      1.0  0.84055  0.08970  0.12757  1.0000
  I   I291      1.0  0.97559  0.07688  0.18467  1.0000
  I   I292      1.0  0.25884  0.05517  0.72645  1.0000
  I   I293      1.0  0.05418  0.25974  0.17693  1.0000
  I   I294      1.0  0.08800  0.20689  0.75246  1.0000
  I   I295      1.0  0.01840  0.85928  0.23846  1.0000
  I   I296      1.0  0.01792  0.07945  0.72303  1.0000
  I   I297      1.0  0.95421  0.93996  0.69936  1.0000
  I   I298      1.0  0.43673  0.75044  0.20217  1.0000
  I   I299      1.0  0.38217  0.87502  0.83342  1.0000
  I   I300      1.0  0.99184  0.64001  0.19114  1.0000
  I   I301      1.0  0.24752  0.09844  0.10591  1.0000
  I   I302      1.0  0.38590  0.21967  0.31763  1.0000
  I   I303      1.0  0.30399  0.11596  0.38623  1.0000
  I   I304      1.0  0.19718  0.41023  0.22029  1.0000
  I   I305      1.0  0.19529  0.74191  0.03670  1.0000
  I   I306      1.0  0.11471  0.80147  0.61520  1.0000
  I   I307      1.0  0.66114  0.60771  0.55510  1.0000
  I   I308      1.0  0.86203  0.78055  0.94610  1.0000
  I   I309      1.0  0.15602  0.58791  0.65225  1.0000
  I   I310      1.0  0.52024  0.01520  0.52645  1.0000
  I   I311      1.0  0.87698  0.76462  0.40277  1.0000
  I   I312      1.0  0.73738  0.88111  0.60231  1.0000
  I   I313      1.0  0.30680  0.62137  0.85653  1.0000
  I   I314      1.0  0.26921  0.30467  0.74632  1.0000
  I   I315      1.0  0.21078  0.49034  0.84420  1.0000
  I   I316      1.0  0.74033  0.57972  0.74651  1.0000
  I   I317      1.0  0.52069  0.65758  0.76525  1.0000
  I   I318      1.0  0.72951  0.48445  0.88331  1.0000
  I   I319      1.0  0.88312  0.44284  0.91795  1.0000
  I   I320      1.0  0.90974  0.31967  0.15263  1.0000
  I   I321      1.0  0.75244  0.32190  0.55323  1.0000
  I   I322      1.0  0.86931  0.86570  0.06234  1.0000
  I   I323      1.0  0.59382  0.74521  0.99665  1.0000
  I   I324      1.0  0.79780  0.63952  0.65521  1.0000
  I   I325      1.0  0.59855  0.17261  0.13578  1.0000
  I   I326      1.0  0.52135  0.27793  0.43376  1.0000
  I   I327      1.0  0.56018  0.37906  0.10244  1.0000
  I   I328      1.0  0.17627  0.01032  0.34626  1.0000
  I   I329      1.0  0.69652  0.25127  0.57009  1.0000
  I   I330      1.0  0.26755  0.83223  0.53536  1.0000
  I   I331      1.0  0.08227  0.53465  0.62979  1.0000
  I   I332      1.0  0.88073  0.20014  0.93552  1.0000
  I   I333      1.0  0.95427  0.53425  0.34048  1.0000
  I   I334      1.0  0.51578  0.24251  0.81452  1.0000
  I   I335      1.0  0.67736  0.11878  0.39186  1.0000
  I   I336      1.0  0.58486  0.88558  0.11855  1.0000
  I   I337      1.0  0.61344  0.76859  0.44037  1.0000
  I   I338      1.0  0.83023  0.04670  0.25527  1.0000
  I   I339      1.0  0.96701  0.03979  0.31323  1.0000
  I   I340      1.0  0.26696  0.02362  0.59255  1.0000
  I   I341      1.0  0.01705  0.24873  0.46682  1.0000
  I   I342      1.0  0.14664  0.15950  0.82734  1.0000
  I   I343      1.0  0.02174  0.80214  0.34400  1.0000
  I   I344      1.0  0.04401  0.09369  0.59692  1.0000
  I   I345      1.0  0.91191  0.87181  0.63874  1.0000
  I   I346      1.0  0.37123  0.81729  0.20092  1.0000
  I   I347      1.0  0.46170  0.83070  0.80475  1.0000
  I   I348      1.0  0.93481  0.61950  0.20259  1.0000
  I   I349      1.0  0.20974  0.05748  0.18474  1.0000
  I   I350      1.0  0.34825  0.17699  0.33732  1.0000
  I   I351      1.0  0.34078  0.05867  0.28926  1.0000
  I   I352      1.0  0.11834  0.42970  0.18514  1.0000
  I   I353      1.0  0.21062  0.74472  0.87424  1.0000
  I   I354      1.0  0.10646  0.73946  0.68106  1.0000
  I   I355      1.0  0.59056  0.71119  0.74755  1.0000
  I   I356      1.0  0.74337  0.85160  0.03020  1.0000
  I   I357      1.0  0.18044  0.64262  0.65672  1.0000
  I   I358      1.0  0.44704  0.02473  0.51828  1.0000
  I   I359      1.0  0.85919  0.80557  0.24617  1.0000
  I   I360      1.0  0.78659  0.91900  0.57025  1.0000
  I   I361      1.0  0.36863  0.58051  0.73961  1.0000
  I   I362      1.0  0.33358  0.24584  0.82790  1.0000
  I   I363      1.0  0.16736  0.45253  0.81142  1.0000
  I   I364      1.0  0.74589  0.56951  0.59629  1.0000
  I   I365      1.0  0.47904  0.63478  0.88445  1.0000
  I   I366      1.0  0.65382  0.51151  0.81996  1.0000
  I   I367      1.0  0.95868  0.39707  0.94204  1.0000
  I   I368      1.0  0.84365  0.33768  0.07255  1.0000
  I   I369      1.0  0.74059  0.31104  0.72159  1.0000
  I   I370      1.0  0.93817  0.83982  0.13401  1.0000
  I   I371      1.0  0.64599  0.69705  0.89419  1.0000
  I   I372      1.0  0.83576  0.67606  0.59516  1.0000
  I   I373      1.0  0.67305  0.16668  0.10005  1.0000
  I   I374      1.0  0.56031  0.20368  0.33387  1.0000
  I   I375      1.0  0.50915  0.44281  0.94185  1.0000
  I   I376      1.0  0.17179  0.96145  0.21714  1.0000
  I   I377      1.0  0.68539  0.28340  0.71888  1.0000
  I   I378      1.0  0.22333  0.85432  0.62770  1.0000
  I   I379      1.0  0.12445  0.46020  0.58899  1.0000
  I   I380      1.0  0.77086  0.30463  0.06542  1.0000
  I   I381      1.0  0.97903  0.46539  0.27511  1.0000
  I   I382      1.0  0.53538  0.21596  0.66163  1.0000
  I   I383      1.0  0.74627  0.08774  0.33136  1.0000
  I   I384      1.0  0.59045  0.90296  0.98090  1.0000
