data_image0
_chemical_formula_structural       Ti96I384
_chemical_formula_sum              "Ti96 I384"
_cell_length_a       77.8069
_cell_length_b       77.9027
_cell_length_c       38.0977
_cell_angle_alpha    88.7757
_cell_angle_beta     88.7757
_cell_angle_gamma    62.1586

_space_group_name_H-M_alt    "P 1"
_space_group_IT_number       1

loop_
  _space_group_symop_operation_xyz
  'x, y, z'

loop_
  _atom_site_type_symbol
  _atom_site_label
  _atom_site_symmetry_multiplicity
  _atom_site_fract_x
  _atom_site_fract_y
  _atom_site_fract_z
  _atom_site_occupancy
  Ti  Ti1       1.0  0.72672  0.76955  0.02839  1.0000
  Ti  Ti2       1.0  0.56600  0.82402  0.62137  1.0000
  Ti  Ti3       1.0  0.08445  0.12536  0.49342  1.0000
  Ti  Ti4       1.0  0.26722  0.08302  0.88763  1.0000
  Ti  Ti5       1.0  0.63246  0.08575  0.42086  1.0000
  Ti  Ti6       1.0  0.49627  0.76272  0.25242  1.0000
  Ti  Ti7       1.0  0.67323  0.96601  0.45864  1.0000
  Ti  Ti8       1.0  0.81687  0.26678  0.20568  1.0000
  Ti  Ti9       1.0  0.18158  0.13345  0.76971  1.0000
  Ti  Ti10      1.0  0.80826  0.52251  0.38960  1.0000
  Ti  Ti11      1.0  0.98025  0.92900  0.51866  1.0000
  Ti  Ti12      1.0  0.22592  0.00304  0.13212  1.0000
  Ti  Ti13      1.0  0.72360  0.66774  0.81180  1.0000
  Ti  Ti14      1.0  0.26101  0.04413  0.90059  1.0000
  Ti  Ti15      1.0  0.91853  0.16465  0.54377  1.0000
  Ti  Ti16      1.0  0.10982  0.13689  0.11557  1.0000
  Ti  Ti17      1.0  0.19862  0.21401  0.13999  1.0000
  Ti  Ti18      1.0  0.65814  0.31327  0.10824  1.0000
  Ti  Ti19      1.0  0.42759  0.06649  0.46055  1.0000
  Ti  Ti20      1.0  0.17943  0.46380  0.68940  1.0000
  Ti  Ti21      1.0  0.82463  0.25156  0.11379  1.0000
  Ti  Ti22      1.0  0.53833  0.48640  0.37294  1.0000
  Ti  Ti23      1.0  0.26199  0.37037  0.80268  1.0000
  Ti  Ti24      1.0  0.29913  0.40119  0.57514  1.0000
  Ti  Ti25      1.0  0.78876  0.23612  0.39756  1.0000
  Ti  Ti26      1.0  0.20108  0.73802  0.19522  1.0000
  Ti  Ti27      1.0  0.81738  0.72566  0.46760  1.0000
  Ti  Ti28      1.0  0.36628  0.95364  0.30970  1.0000
  Ti  Ti29      1.0  0.99988  0.95510  0.65177  1.0000
  Ti  Ti30      1.0  0.20404  0.63727  0.14452  1.0000
  Ti  Ti31      1.0  0.84954  0.10767  0.44625  1.0000
  Ti  Ti32      1.0  0.40031  0.88407  0.52907  1.0000
  Ti  Ti33      1.0  0.57486  0.25654  0.15740  1.0000
  Ti  Ti34      1.0  0.33154  0.40025  0.15176  1.0000
  Ti  Ti35      1.0  0.58822  0.04516  0.78026  1.0000
  Ti  Ti36      1.0  0.59129  0.12908  0.27491  1.0000
  Ti  Ti37      1.0  0.44797  0.10997  0.82601  1.0000
  Ti  Ti38      1.0  0.43620  0.49727  0.66954  1.0000
  Ti  Ti39      1.0  0.84964  0.52029  0.42229  1.0000
  Ti  Ti40      1.0  0.71635  0.56972  0.93473  1.0000
  Ti  Ti41      1.0  0.28410  0.59811  0.57384  1.0000
  Ti  Ti42      1.0  0.97010  0.60163  0.42325  1.0000
  Ti  Ti43      1.0  0.24935  0.87670  0.36330  1.0000
  Ti  Ti44      1.0  0.96462  0.32236  0.90113  1.0000
  Ti  Ti45      1.0  0.88756  0.38844  0.87801  1.0000
  Ti  Ti46      1.0  0.82942  0.47309  0.69981  1.0000
  Ti  Ti47      1.0  0.73049  0.22073  0.70412  1.0000
  Ti  Ti48      1.0  0.79121  0.84302  0.03094  1.0000
  Ti  Ti49      1.0  0.21851  0.84204  0.41496  1.0000
  Ti  Ti50      1.0  0.20680  0.44908  0.58415  1.0000
  Ti  Ti51      1.0  0.56089  0.86836  0.54245  1.0000
  Ti  Ti52      1.0  0.42718  0.63313  0.52071  1.0000
  Ti  Ti53      1.0  0.10614  0.75697  0.51865  1.0000
  Ti  Ti54      1.0  0.39006  0.77448  0.85950  1.0000
  Ti  Ti55      1.0  0.59522  0.54881  0.54645  1.0000
  Ti  Ti56      1.0  0.73876  0.09388  0.60495  1.0000
  Ti  Ti57      1.0  0.13359  0.14656  0.78927  1.0000
  Ti  Ti58      1.0  0.46402  0.20649  0.22284  1.0000
  Ti  Ti59      1.0  0.13422  0.07811  0.11706  1.0000
  Ti  Ti60      1.0  0.02650  0.24690  0.26674  1.0000
  Ti  Ti61      1.0  0.48855  0.20012  0.89948  1.0000
  Ti  Ti62      1.0  0.77139  0.64489  0.80109  1.0000
  Ti  Ti63      1.0  0.09685  0.72850  0.32295  1.0000
  Ti  Ti64      1.0  0.65517  0.34972  0.15630  1.0000
  Ti  Ti65      1.0  0.80405  0.63197  0.92577  1.0000
  Ti  Ti66      1.0  0.42935  0.89786  0.35554  1.0000
  Ti  Ti67      1.0  0.17131  0.62329  0.91787  1.0000
  Ti  Ti68      1.0  0.80529  0.50228  0.74945  1.0000
  Ti  Ti69      1.0  0.19590  0.71651  0.11255  1.0000
  Ti  Ti70      1.0  0.29061  0.07577  0.51437  1.0000
  Ti  Ti71      1.0  0.29260  0.72442  0.08299  1.0000
  Ti  Ti72      1.0  0.74189  0.18658  0.77958  1.0000
  Ti  Ti73      1.0  0.58519  0.32144  0.44164  1.0000
  Ti  Ti74      1.0  0.74282  0.26447  0.31326  1.0000
  Ti  Ti75      1.0  0.76550  0.66076  0.19095  1.0000
  Ti  Ti76      1.0  0.91045  0.03381  0.17577  1.0000
  Ti  Ti77      1.0  0.97687  0.12269  0.52383  1.0000
  Ti  Ti78      1.0  0.04875  0.95877  0.66542  1.0000
  Ti  Ti79      1.0  0.48672  0.94751  0.41288  1.0000
  Ti  Ti80      1.0  0.86401  0.52465  0.65458  1.0000
  Ti  Ti81      1.0  0.29285  0.38726  0.81516  1.0000
  Ti  Ti82      1.0  0.73700  0.42055  0.14611  1.0000
  Ti  Ti83      1.0  0.86571  0.40335  0.95932  1.0000
  Ti  Ti84      1.0  0.58814  0.09966  0.18624  1.0000
  Ti  Ti85      1.0  0.44383  0.13160  0.76619  1.0000
  Ti  Ti86      1.0  0.66138  0.94776  0.38843  1.0000
  Ti  Ti87      1.0  0.58167  0.80388  0.79507  1.0000
  Ti  Ti88      1.0  0.02171  0.07104  0.32419  1.0000
  Ti  Ti89      1.0  0.07184  0.32599  0.93165  1.0000
  Ti  Ti90      1.0  0.24502  0.15754  0.08226  1.0000
  Ti  Ti91      1.0  0.61750  0.44123  0.64018  1.0000
  Ti  Ti92      1.0  0.50136  0.59009  0.94737  1.0000
  Ti  Ti93      1.0  0.37085  0.65596  0.79015  1.0000
  Ti  Ti94      1.0  0.79592  0.83355  0.95554  1.0000
  Ti  Ti95      1.0  0.76735  0.02630  0.30529  1.0000
  Ti  Ti96      1.0  0.54623  0.34669  0.06636  1.0000
  I   I1        1.0  0.71847  0.18777  0.71505  1.0000
  I   I2        1.0  0.52395  0.88257  0.51151  1.0000
  I   I3        1.0  0.21847  0.85272  0.48141  1.0000
  I   I4        1.0  0.07721  0.78593  0.49458  1.0000
  I   I5        1.0  0.48050  0.79367  0.21667  1.0000
  I   I6        1.0  0.36533  0.77568  0.81801  1.0000
  I   I7        1.0  0.81247  0.28830  0.13932  1.0000
  I   I8        1.0  0.75349  0.10013  0.66040  1.0000
  I   I9        1.0  0.19977  0.12958  0.70716  1.0000
  I   I10       1.0  0.73130  0.54851  0.88025  1.0000
  I   I11       1.0  0.00894  0.89134  0.53798  1.0000
  I   I12       1.0  0.63413  0.09235  0.48849  1.0000
  I   I13       1.0  0.75753  0.62177  0.80459  1.0000
  I   I14       1.0  0.08687  0.76029  0.27104  1.0000
  I   I15       1.0  0.95382  0.16102  0.53312  1.0000
  I   I16       1.0  0.74750  0.57137  0.95783  1.0000
  I   I17       1.0  0.42144  0.93351  0.33498  1.0000
  I   I18       1.0  0.64676  0.28533  0.09370  1.0000
  I   I19       1.0  0.12624  0.70559  0.27244  1.0000
  I   I20       1.0  0.95451  0.93271  0.47333  1.0000
  I   I21       1.0  0.82589  0.23244  0.23780  1.0000
  I   I22       1.0  0.26542  0.34037  0.84125  1.0000
  I   I23       1.0  0.02683  0.09210  0.37271  1.0000
  I   I24       1.0  0.28535  0.05207  0.55815  1.0000
  I   I25       1.0  0.78187  0.20919  0.43007  1.0000
  I   I26       1.0  0.80057  0.62932  0.20507  1.0000
  I   I27       1.0  0.55661  0.03960  0.77286  1.0000
  I   I28       1.0  0.36414  0.92547  0.27600  1.0000
  I   I29       1.0  0.02253  0.96691  0.60052  1.0000
  I   I30       1.0  0.17306  0.66320  0.11375  1.0000
  I   I31       1.0  0.84155  0.51696  0.60611  1.0000
  I   I32       1.0  0.30225  0.40507  0.87351  1.0000
  I   I33       1.0  0.45438  0.95534  0.45358  1.0000
  I   I34       1.0  0.58920  0.04513  0.84840  1.0000
  I   I35       1.0  0.61074  0.06785  0.15226  1.0000
  I   I36       1.0  0.34053  0.36176  0.17155  1.0000
  I   I37       1.0  0.48456  0.09187  0.79281  1.0000
  I   I38       1.0  0.84168  0.51688  0.35099  1.0000
  I   I39       1.0  0.42768  0.10712  0.88284  1.0000
  I   I40       1.0  0.93924  0.32119  0.94647  1.0000
  I   I41       1.0  0.20726  0.46921  0.52607  1.0000
  I   I42       1.0  0.69765  0.55672  0.97137  1.0000
  I   I43       1.0  0.47666  0.16791  0.21475  1.0000
  I   I44       1.0  0.97162  0.34812  0.93974  1.0000
  I   I45       1.0  0.90273  0.38335  0.94218  1.0000
  I   I46       1.0  0.73152  0.04293  0.26434  1.0000
  I   I47       1.0  0.73127  0.25258  0.72145  1.0000
  I   I48       1.0  0.77483  0.82037  0.99790  1.0000
  I   I49       1.0  0.23205  0.81074  0.38261  1.0000
  I   I50       1.0  0.53649  0.83810  0.66615  1.0000
  I   I51       1.0  0.55211  0.82129  0.55994  1.0000
  I   I52       1.0  0.83664  0.56049  0.65718  1.0000
  I   I53       1.0  0.13576  0.73586  0.48688  1.0000
  I   I54       1.0  0.39310  0.80653  0.84737  1.0000
  I   I55       1.0  0.62654  0.96766  0.35197  1.0000
  I   I56       1.0  0.85423  0.25591  0.20792  1.0000
  I   I57       1.0  0.77273  0.04082  0.24250  1.0000
  I   I58       1.0  0.84646  0.48604  0.41800  1.0000
  I   I59       1.0  0.13213  0.05205  0.07786  1.0000
  I   I60       1.0  0.00120  0.27842  0.29310  1.0000
  I   I61       1.0  0.74643  0.67530  0.86091  1.0000
  I   I62       1.0  0.75568  0.66782  0.74365  1.0000
  I   I63       1.0  0.13939  0.49417  0.67838  1.0000
  I   I64       1.0  0.12924  0.10535  0.16877  1.0000
  I   I65       1.0  0.82441  0.65112  0.93258  1.0000
  I   I66       1.0  0.38132  0.96311  0.25558  1.0000
  I   I67       1.0  0.39048  0.07484  0.44712  1.0000
  I   I68       1.0  0.18661  0.45644  0.75232  1.0000
  I   I69       1.0  0.22966  0.70723  0.15290  1.0000
  I   I70       1.0  0.32630  0.05729  0.48000  1.0000
  I   I71       1.0  0.22301  0.38200  0.80634  1.0000
  I   I72       1.0  0.71676  0.22539  0.77797  1.0000
  I   I73       1.0  0.83640  0.72806  0.52392  1.0000
  I   I74       1.0  0.20386  0.76795  0.20055  1.0000
  I   I75       1.0  0.21817  0.72311  0.25614  1.0000
  I   I76       1.0  0.93372  0.12780  0.57232  1.0000
  I   I77       1.0  0.91035  0.17775  0.60524  1.0000
  I   I78       1.0  0.84215  0.08580  0.40220  1.0000
  I   I79       1.0  0.53888  0.27373  0.16021  1.0000
  I   I80       1.0  0.71477  0.79524  0.08021  1.0000
  I   I81       1.0  0.42773  0.88845  0.50092  1.0000
  I   I82       1.0  0.75030  0.40590  0.20210  1.0000
  I   I83       1.0  0.87015  0.36636  0.91375  1.0000
  I   I84       1.0  0.57309  0.16667  0.25548  1.0000
  I   I85       1.0  0.41756  0.16257  0.72650  1.0000
  I   I86       1.0  0.45624  0.88421  0.39535  1.0000
  I   I87       1.0  0.88504  0.51163  0.41032  1.0000
  I   I88       1.0  0.79631  0.53599  0.45936  1.0000
  I   I89       1.0  0.31121  0.40233  0.09663  1.0000
  I   I90       1.0  0.24537  0.42750  0.57911  1.0000
  I   I91       1.0  0.61283  0.45420  0.70226  1.0000
  I   I92       1.0  0.48281  0.62735  0.96731  1.0000
  I   I93       1.0  0.98738  0.28622  0.87600  1.0000
  I   I94       1.0  0.82676  0.80753  0.00384  1.0000
  I   I95       1.0  0.84237  0.43477  0.72449  1.0000
  I   I96       1.0  0.57469  0.46319  0.36490  1.0000
  I   I97       1.0  0.11462  0.10605  0.54576  1.0000
  I   I98       1.0  0.76431  0.74709  0.03434  1.0000
  I   I99       1.0  0.54559  0.86695  0.61281  1.0000
  I   I100      1.0  0.25589  0.07076  0.83304  1.0000
  I   I101      1.0  0.98522  0.09356  0.30254  1.0000
  I   I102      1.0  0.65455  0.09132  0.37387  1.0000
  I   I103      1.0  0.69655  0.92722  0.42388  1.0000
  I   I104      1.0  0.57079  0.59016  0.53116  1.0000
  I   I105      1.0  0.14782  0.13840  0.72641  1.0000
  I   I106      1.0  0.25840  0.99190  0.09619  1.0000
  I   I107      1.0  0.77933  0.54702  0.35328  1.0000
  I   I108      1.0  0.19934  0.02615  0.09203  1.0000
  I   I109      1.0  0.90237  0.19582  0.49555  1.0000
  I   I110      1.0  0.69810  0.66590  0.85114  1.0000
  I   I111      1.0  0.17348  0.48442  0.61737  1.0000
  I   I112      1.0  0.64002  0.38815  0.16538  1.0000
  I   I113      1.0  0.78512  0.64849  0.98955  1.0000
  I   I114      1.0  0.22213  0.16908  0.14111  1.0000
  I   I115      1.0  0.16787  0.59931  0.87549  1.0000
  I   I116      1.0  0.14382  0.66071  0.91314  1.0000
  I   I117      1.0  0.79694  0.48851  0.80599  1.0000
  I   I118      1.0  0.53474  0.37546  0.02274  1.0000
  I   I119      1.0  0.19080  0.60859  0.97472  1.0000
  I   I120      1.0  0.69264  0.24543  0.69186  1.0000
  I   I121      1.0  0.60244  0.28939  0.40803  1.0000
  I   I122      1.0  0.82529  0.21795  0.38831  1.0000
  I   I123      1.0  0.78197  0.68141  0.16734  1.0000
  I   I124      1.0  0.18615  0.63082  0.19145  1.0000
  I   I125      1.0  0.92673  0.02365  0.11310  1.0000
  I   I126      1.0  0.05186  0.98813  0.64126  1.0000
  I   I127      1.0  0.58042  0.23388  0.10690  1.0000
  I   I128      1.0  0.26377  0.03034  0.96382  1.0000
  I   I129      1.0  0.29733  0.40608  0.75818  1.0000
  I   I130      1.0  0.60376  0.12298  0.18205  1.0000
  I   I131      1.0  0.71198  0.45839  0.16064  1.0000
  I   I132      1.0  0.61653  0.01057  0.76313  1.0000
  I   I133      1.0  0.84916  0.52982  0.48875  1.0000
  I   I134      1.0  0.43052  0.52037  0.61451  1.0000
  I   I135      1.0  0.41157  0.87585  0.33750  1.0000
  I   I136      1.0  0.96034  0.63855  0.40758  1.0000
  I   I137      1.0  0.41446  0.67180  0.51247  1.0000
  I   I138      1.0  0.07333  0.31475  0.99646  1.0000
  I   I139      1.0  0.65461  0.43276  0.61823  1.0000
  I   I140      1.0  0.52079  0.58473  0.88977  1.0000
  I   I141      1.0  0.36156  0.63486  0.75508  1.0000
  I   I142      1.0  0.80995  0.82162  0.89185  1.0000
  I   I143      1.0  0.11851  0.11491  0.46210  1.0000
  I   I144      1.0  0.53203  0.52119  0.35283  1.0000
  I   I145      1.0  0.70951  0.74794  0.04154  1.0000
  I   I146      1.0  0.58833  0.83968  0.58429  1.0000
  I   I147      1.0  0.05552  0.14858  0.45280  1.0000
  I   I148      1.0  0.46701  0.62457  0.53114  1.0000
  I   I149      1.0  0.59493  0.10581  0.41703  1.0000
  I   I150      1.0  0.47742  0.74865  0.29278  1.0000
  I   I151      1.0  0.60038  0.55727  0.61115  1.0000
  I   I152      1.0  0.82786  0.25496  0.04707  1.0000
  I   I153      1.0  0.20826  0.11942  0.81815  1.0000
  I   I154      1.0  0.22196  0.90636  0.32304  1.0000
  I   I155      1.0  0.96126  0.96716  0.53138  1.0000
  I   I156      1.0  0.06094  0.21935  0.27998  1.0000
  I   I157      1.0  0.98993  0.11791  0.58863  1.0000
  I   I158      1.0  0.09521  0.69929  0.34785  1.0000
  I   I159      1.0  0.49617  0.20067  0.96628  1.0000
  I   I160      1.0  0.62272  0.36129  0.19793  1.0000
  I   I161      1.0  0.20433  0.21030  0.20673  1.0000
  I   I162      1.0  0.64170  0.34804  0.08592  1.0000
  I   I163      1.0  0.43060  0.07841  0.52288  1.0000
  I   I164      1.0  0.84601  0.47562  0.76160  1.0000
  I   I165      1.0  0.79911  0.29609  0.24252  1.0000
  I   I166      1.0  0.53758  0.34657  0.13636  1.0000
  I   I167      1.0  0.25865  0.42592  0.82434  1.0000
  I   I168      1.0  0.33294  0.39425  0.60731  1.0000
  I   I169      1.0  0.71189  0.26155  0.34430  1.0000
  I   I170      1.0  0.78149  0.23709  0.32351  1.0000
  I   I171      1.0  0.83281  0.73591  0.41449  1.0000
  I   I172      1.0  0.90623  0.00170  0.19271  1.0000
  I   I173      1.0  0.06341  0.95811  0.72276  1.0000
  I   I174      1.0  0.21775  0.61065  0.09272  1.0000
  I   I175      1.0  0.88244  0.10835  0.45169  1.0000
  I   I176      1.0  0.39256  0.89565  0.59147  1.0000
  I   I177      1.0  0.51727  0.91277  0.40243  1.0000
  I   I178      1.0  0.75446  0.43874  0.12214  1.0000
  I   I179      1.0  0.86240  0.42582  0.01256  1.0000
  I   I180      1.0  0.61453  0.13321  0.31877  1.0000
  I   I181      1.0  0.46347  0.07078  0.84803  1.0000
  I   I182      1.0  0.65920  0.98277  0.38621  1.0000
  I   I183      1.0  0.59599  0.77565  0.75059  1.0000
  I   I184      1.0  0.03884  0.07671  0.27184  1.0000
  I   I185      1.0  0.08214  0.34903  0.89208  1.0000
  I   I186      1.0  0.94449  0.59538  0.45797  1.0000
  I   I187      1.0  0.52693  0.56812  0.99711  1.0000
  I   I188      1.0  0.98871  0.33022  0.85812  1.0000
  I   I189      1.0  0.60653  0.80649  0.83360  1.0000
  I   I190      1.0  0.86308  0.47001  0.66523  1.0000
  I   I191      1.0  0.23352  0.12951  0.07227  1.0000
  I   I192      1.0  0.07915  0.14966  0.54747  1.0000
  I   I193      1.0  0.96187  0.97639  0.65517  1.0000
  I   I194      1.0  0.21790  0.44970  0.65731  1.0000
  I   I195      1.0  0.08149  0.09354  0.50045  1.0000
  I   I196      1.0  0.25968  0.11966  0.87145  1.0000
  I   I197      1.0  0.42923  0.21525  0.19235  1.0000
  I   I198      1.0  0.51339  0.73782  0.20322  1.0000
  I   I199      1.0  0.36758  0.90306  0.49738  1.0000
  I   I200      1.0  0.76399  0.06368  0.55943  1.0000
  I   I201      1.0  0.16009  0.16749  0.79951  1.0000
  I   I202      1.0  0.07902  0.14768  0.15883  1.0000
  I   I203      1.0  0.18737  0.75607  0.12404  1.0000
  I   I204      1.0  0.22106  0.97203  0.13109  1.0000
  I   I205      1.0  0.79905  0.61826  0.75736  1.0000
  I   I206      1.0  0.30537  0.06303  0.88586  1.0000
  I   I207      1.0  0.97044  0.10102  0.48430  1.0000
  I   I208      1.0  0.12367  0.15993  0.12507  1.0000
  I   I209      1.0  0.18932  0.25174  0.12320  1.0000
  I   I210      1.0  0.50601  0.95322  0.46584  1.0000
  I   I211      1.0  0.28603  0.10699  0.54850  1.0000
  I   I212      1.0  0.08508  0.75317  0.37045  1.0000
  I   I213      1.0  0.16016  0.72896  0.09614  1.0000
  I   I214      1.0  0.53657  0.49701  0.43825  1.0000
  I   I215      1.0  0.25617  0.38117  0.73305  1.0000
  I   I216      1.0  0.34070  0.67044  0.82951  1.0000
  I   I217      1.0  0.79999  0.24466  0.45320  1.0000
  I   I218      1.0  0.74971  0.67594  0.25037  1.0000
  I   I219      1.0  0.60794  0.31297  0.49096  1.0000
  I   I220      1.0  0.88679  0.16063  0.52377  1.0000
  I   I221      1.0  0.00554  0.98161  0.69776  1.0000
  I   I222      1.0  0.94057  0.03225  0.20018  1.0000
  I   I223      1.0  0.81984  0.14098  0.42782  1.0000
  I   I224      1.0  0.40917  0.84735  0.54044  1.0000
  I   I225      1.0  0.60990  0.25523  0.15289  1.0000
  I   I226      1.0  0.75859  0.38747  0.11090  1.0000
  I   I227      1.0  0.59635  0.06361  0.73058  1.0000
  I   I228      1.0  0.56599  0.12855  0.31862  1.0000
  I   I229      1.0  0.45391  0.23818  0.25918  1.0000
  I   I230      1.0  0.47652  0.48119  0.66037  1.0000
  I   I231      1.0  0.79791  0.49397  0.38549  1.0000
  I   I232      1.0  0.29798  0.01538  0.88962  1.0000
  I   I233      1.0  0.24842  0.61621  0.60013  1.0000
  I   I234      1.0  0.24024  0.19490  0.10252  1.0000
  I   I235      1.0  0.28680  0.87044  0.37321  1.0000
  I   I236      1.0  0.39897  0.65938  0.74559  1.0000
  I   I237      1.0  0.60086  0.47151  0.60154  1.0000
  I   I238      1.0  0.74521  0.01904  0.35648  1.0000
  I   I239      1.0  0.57804  0.34603  0.09139  1.0000
  I   I240      1.0  0.75582  0.86953  0.04363  1.0000
  I   I241      1.0  0.72945  0.75776  0.95716  1.0000
  I   I242      1.0  0.57862  0.78816  0.64137  1.0000
  I   I243      1.0  0.80889  0.47632  0.63891  1.0000
  I   I244      1.0  0.05053  0.04057  0.35401  1.0000
  I   I245      1.0  0.12283  0.76132  0.57726  1.0000
  I   I246      1.0  0.52175  0.76848  0.28306  1.0000
  I   I247      1.0  0.63639  0.97941  0.46310  1.0000
  I   I248      1.0  0.79238  0.25756  0.15671  1.0000
  I   I249      1.0  0.16653  0.11261  0.82060  1.0000
  I   I250      1.0  0.10140  0.11017  0.08336  1.0000
  I   I251      1.0  0.00525  0.93589  0.47536  1.0000
  I   I252      1.0  0.03458  0.26846  0.22228  1.0000
  I   I253      1.0  0.70381  0.70461  0.80502  1.0000
  I   I254      1.0  0.23411  0.08027  0.91991  1.0000
  I   I255      1.0  0.49740  0.16403  0.89913  1.0000
  I   I256      1.0  0.82685  0.59702  0.91433  1.0000
  I   I257      1.0  0.42234  0.14877  0.82434  1.0000
  I   I258      1.0  0.68984  0.29065  0.07748  1.0000
  I   I259      1.0  0.19341  0.63380  0.88513  1.0000
  I   I260      1.0  0.80807  0.52763  0.79173  1.0000
  I   I261      1.0  0.82772  0.21547  0.09858  1.0000
  I   I262      1.0  0.52202  0.46555  0.35964  1.0000
  I   I263      1.0  0.26794  0.71086  0.06315  1.0000
  I   I264      1.0  0.55213  0.13093  0.20907  1.0000
  I   I265      1.0  0.75324  0.26978  0.38778  1.0000
  I   I266      1.0  0.16748  0.74518  0.22020  1.0000
  I   I267      1.0  0.55108  0.33020  0.46580  1.0000
  I   I268      1.0  0.33114  0.97239  0.33851  1.0000
  I   I269      1.0  0.08361  0.93844  0.63459  1.0000
  I   I270      1.0  0.45765  0.88234  0.30622  1.0000
  I   I271      1.0  0.83122  0.11780  0.51488  1.0000
  I   I272      1.0  0.27298  0.38097  0.86675  1.0000
  I   I273      1.0  0.58284  0.23413  0.21426  1.0000
  I   I274      1.0  0.27861  0.59031  0.51112  1.0000
  I   I275      1.0  0.82743  0.68983  0.45059  1.0000
  I   I276      1.0  0.56365  0.08419  0.18865  1.0000
  I   I277      1.0  0.71217  0.41662  0.10164  1.0000
  I   I278      1.0  0.40962  0.48211  0.67581  1.0000
  I   I279      1.0  0.93453  0.35500  0.86034  1.0000
  I   I280      1.0  0.39920  0.62597  0.53176  1.0000
  I   I281      1.0  0.29411  0.62428  0.58362  1.0000
  I   I282      1.0  0.96918  0.58539  0.36416  1.0000
  I   I283      1.0  0.24599  0.90207  0.40639  1.0000
  I   I284      1.0  0.30543  0.42599  0.53044  1.0000
  I   I285      1.0  0.55956  0.83417  0.75836  1.0000
  I   I286      1.0  0.78937  0.03432  0.34675  1.0000
  I   I287      1.0  0.76464  0.18040  0.83432  1.0000
  I   I288      1.0  0.80941  0.85812  0.98517  1.0000
  I   I289      1.0  0.25996  0.83875  0.39035  1.0000
  I   I290      1.0  0.16585  0.21561  0.13743  1.0000
  I   I291      1.0  0.56800  0.89785  0.55079  1.0000
  I   I292      1.0  0.44157  0.61286  0.46270  1.0000
  I   I293      1.0  0.09178  0.73515  0.54739  1.0000
  I   I294      1.0  0.42211  0.74716  0.83963  1.0000
  I   I295      1.0  0.69381  0.94271  0.51244  1.0000
  I   I296      1.0  0.71913  0.07623  0.60981  1.0000
  I   I297      1.0  0.10907  0.12902  0.79056  1.0000
  I   I298      1.0  0.48200  0.21045  0.17089  1.0000
  I   I299      1.0  0.10091  0.15046  0.04879  1.0000
  I   I300      1.0  0.39079  0.63820  0.85374  1.0000
  I   I301      1.0  0.50668  0.21552  0.86680  1.0000
  I   I302      1.0  0.70853  0.66432  0.75418  1.0000
  I   I303      1.0  0.69302  0.60351  0.91561  1.0000
  I   I304      1.0  0.66425  0.30877  0.17436  1.0000
  I   I305      1.0  0.15553  0.04928  0.15610  1.0000
  I   I306      1.0  0.68348  0.99261  0.46088  1.0000
  I   I307      1.0  0.44161  0.03023  0.45184  1.0000
  I   I308      1.0  0.16506  0.44466  0.65462  1.0000
  I   I309      1.0  0.86319  0.22376  0.12318  1.0000
  I   I310      1.0  0.21251  0.86544  0.36519  1.0000
  I   I311      1.0  0.31038  0.70187  0.13331  1.0000
  I   I312      1.0  0.77494  0.18513  0.74552  1.0000
  I   I313      1.0  0.58825  0.34769  0.40787  1.0000
  I   I314      1.0  0.73731  0.30067  0.29810  1.0000
  I   I315      1.0  0.72869  0.67864  0.16637  1.0000
  I   I316      1.0  0.88549  0.06906  0.14638  1.0000
  I   I317      1.0  0.38457  0.92932  0.35847  1.0000
  I   I318      1.0  0.99241  0.92748  0.62256  1.0000
  I   I319      1.0  0.49513  0.96866  0.37178  1.0000
  I   I320      1.0  0.28142  0.07721  0.95475  1.0000
  I   I321      1.0  0.62843  0.54518  0.52387  1.0000
  I   I322      1.0  0.31331  0.41584  0.21239  1.0000
  I   I323      1.0  0.89110  0.42200  0.87295  1.0000
  I   I324      1.0  0.60239  0.08851  0.25580  1.0000
  I   I325      1.0  0.47455  0.13467  0.76004  1.0000
  I   I326      1.0  0.65179  0.92105  0.41309  1.0000
  I   I327      1.0  0.86701  0.38509  0.83419  1.0000
  I   I328      1.0  0.83617  0.55629  0.41084  1.0000
  I   I329      1.0  0.03986  0.33357  0.91339  1.0000
  I   I330      1.0  0.25806  0.15919  0.01903  1.0000
  I   I331      1.0  0.55627  0.79701  0.83120  1.0000
  I   I332      1.0  0.27129  0.12310  0.11470  1.0000
  I   I333      1.0  0.34043  0.42652  0.11892  1.0000
  I   I334      1.0  0.76755  0.86857  0.93420  1.0000
  I   I335      1.0  0.79044  0.48514  0.70126  1.0000
  I   I336      1.0  0.55948  0.31499  0.02625  1.0000
  I   I337      1.0  0.18348  0.84636  0.41256  1.0000
  I   I338      1.0  0.18987  0.42737  0.57409  1.0000
  I   I339      1.0  0.58177  0.85100  0.49109  1.0000
  I   I340      1.0  0.87265  0.52561  0.72029  1.0000
  I   I341      1.0  0.63966  0.05048  0.39878  1.0000
  I   I342      1.0  0.37542  0.78194  0.92358  1.0000
  I   I343      1.0  0.60744  0.50941  0.54479  1.0000
  I   I344      1.0  0.72130  0.12938  0.57383  1.0000
  I   I345      1.0  0.10669  0.18312  0.80234  1.0000
  I   I346      1.0  0.26590  0.07779  0.47204  1.0000
  I   I347      1.0  0.15420  0.09144  0.07011  1.0000
  I   I348      1.0  0.01466  0.22901  0.22310  1.0000
  I   I349      1.0  0.45406  0.22835  0.91161  1.0000
  I   I350      1.0  0.79654  0.64234  0.85393  1.0000
  I   I351      1.0  0.23892  0.02764  0.88490  1.0000
  I   I352      1.0  0.68625  0.33687  0.11256  1.0000
  I   I353      1.0  0.77060  0.62659  0.93797  1.0000
  I   I354      1.0  0.66546  0.92841  0.32603  1.0000
  I   I355      1.0  0.43129  0.08951  0.41707  1.0000
  I   I356      1.0  0.81764  0.51468  0.68836  1.0000
  I   I357      1.0  0.22057  0.70239  0.05932  1.0000
  I   I358      1.0  0.29269  0.37588  0.53863  1.0000
  I   I359      1.0  0.26564  0.76200  0.09781  1.0000
  I   I360      1.0  0.75331  0.14508  0.78406  1.0000
  I   I361      1.0  0.77840  0.74790  0.45296  1.0000
  I   I362      1.0  0.74226  0.25763  0.24842  1.0000
  I   I363      1.0  0.21121  0.67616  0.13300  1.0000
  I   I364      1.0  0.24070  0.61030  0.17426  1.0000
  I   I365      1.0  0.00616  0.12417  0.49458  1.0000
  I   I366      1.0  0.03274  0.93099  0.67808  1.0000
  I   I367      1.0  0.47336  0.94152  0.34973  1.0000
  I   I368      1.0  0.89147  0.53211  0.63922  1.0000
  I   I369      1.0  0.30254  0.35265  0.79152  1.0000
  I   I370      1.0  0.30658  0.56445  0.60112  1.0000
  I   I371      1.0  0.84856  0.42973  0.90923  1.0000
  I   I372      1.0  0.29305  0.39204  0.63781  1.0000
  I   I373      1.0  0.42249  0.11279  0.76562  1.0000
  I   I374      1.0  0.42997  0.52624  0.71125  1.0000
  I   I375      1.0  0.85926  0.38119  0.00990  1.0000
  I   I376      1.0  0.31443  0.72482  0.03175  1.0000
  I   I377      1.0  0.09742  0.29742  0.89894  1.0000
  I   I378      1.0  0.00716  0.58777  0.44127  1.0000
  I   I379      1.0  0.59514  0.42592  0.61476  1.0000
  I   I380      1.0  0.47713  0.57716  0.93458  1.0000
  I   I381      1.0  0.22460  0.01623  0.19439  1.0000
  I   I382      1.0  0.80508  0.83600  0.09460  1.0000
  I   I383      1.0  0.79213  0.99046  0.30894  1.0000
  I   I384      1.0  0.74338  0.21899  0.64180  1.0000
