data_image0
_chemical_formula_structural       Ti96I384
_chemical_formula_sum              "Ti96 I384"
_cell_length_a       38.4729
_cell_length_b       37.8242
_cell_length_c       22.2322
_cell_angle_alpha    88.7757
_cell_angle_beta     88.7757
_cell_angle_gamma    62.1586

_space_group_name_H-M_alt    "P 1"
_space_group_IT_number       1

loop_
  _space_group_symop_operation_xyz
  'x, y, z'

loop_
  _atom_site_type_symbol
  _atom_site_label
  _atom_site_symmetry_multiplicity
  _atom_site_fract_x
  _atom_site_fract_y
  _atom_site_fract_z
  _atom_site_occupancy
  Ti  Ti1       1.0  0.16283  0.08637  0.21670  1.0000
  Ti  Ti2       1.0  0.18944  0.08406  0.54805  1.0000
  Ti  Ti3       1.0  0.18025  0.09410  0.89205  1.0000
  Ti  Ti4       1.0  0.19296  0.31262  0.28756  1.0000
  Ti  Ti5       1.0  0.17044  0.32150  0.60421  1.0000
  Ti  Ti6       1.0  0.19795  0.33860  0.91870  1.0000
  Ti  Ti7       1.0  0.17337  0.55849  0.22902  1.0000
  Ti  Ti8       1.0  0.16792  0.57695  0.56441  1.0000
  Ti  Ti9       1.0  0.16978  0.58478  0.90895  1.0000
  Ti  Ti10      1.0  0.11349  0.87857  0.24689  1.0000
  Ti  Ti11      1.0  0.11452  0.86748  0.56840  1.0000
  Ti  Ti12      1.0  0.10091  0.87647  0.90304  1.0000
  Ti  Ti13      1.0  0.41023  0.06973  0.29051  1.0000
  Ti  Ti14      1.0  0.39736  0.07977  0.63711  1.0000
  Ti  Ti15      1.0  0.39920  0.09609  0.96105  1.0000
  Ti  Ti16      1.0  0.43013  0.31839  0.26416  1.0000
  Ti  Ti17      1.0  0.43133  0.31974  0.60513  1.0000
  Ti  Ti18      1.0  0.43340  0.32200  0.93664  1.0000
  Ti  Ti19      1.0  0.34674  0.64078  0.23251  1.0000
  Ti  Ti20      1.0  0.37288  0.63397  0.58016  1.0000
  Ti  Ti21      1.0  0.36763  0.64796  0.90657  1.0000
  Ti  Ti22      1.0  0.43171  0.80950  0.17427  1.0000
  Ti  Ti23      1.0  0.43791  0.80520  0.51678  1.0000
  Ti  Ti24      1.0  0.42113  0.83455  0.85029  1.0000
  Ti  Ti25      1.0  0.68085  0.07940  0.33913  1.0000
  Ti  Ti26      1.0  0.68603  0.06846  0.66248  1.0000
  Ti  Ti27      1.0  0.69461  0.07232  0.00444  1.0000
  Ti  Ti28      1.0  0.60082  0.38705  0.25471  1.0000
  Ti  Ti29      1.0  0.61637  0.38325  0.57864  1.0000
  Ti  Ti30      1.0  0.60416  0.39709  0.91822  1.0000
  Ti  Ti31      1.0  0.66822  0.57070  0.21606  1.0000
  Ti  Ti32      1.0  0.67523  0.56384  0.55597  1.0000
  Ti  Ti33      1.0  0.66922  0.56400  0.88398  1.0000
  Ti  Ti34      1.0  0.65298  0.86610  0.27729  1.0000
  Ti  Ti35      1.0  0.64046  0.86920  0.59403  1.0000
  Ti  Ti36      1.0  0.64730  0.85853  0.93361  1.0000
  Ti  Ti37      1.0  0.86291  0.14464  0.25450  1.0000
  Ti  Ti38      1.0  0.86074  0.14627  0.58889  1.0000
  Ti  Ti39      1.0  0.86818  0.15333  0.91509  1.0000
  Ti  Ti40      1.0  0.91257  0.33811  0.17343  1.0000
  Ti  Ti41      1.0  0.92824  0.33279  0.51225  1.0000
  Ti  Ti42      1.0  0.91943  0.32705  0.85322  1.0000
  Ti  Ti43      1.0  0.90808  0.56673  0.23137  1.0000
  Ti  Ti44      1.0  0.90542  0.57809  0.56570  1.0000
  Ti  Ti45      1.0  0.91924  0.56145  0.89758  1.0000
  Ti  Ti46      1.0  0.93638  0.82710  0.30464  1.0000
  Ti  Ti47      1.0  0.91450  0.83332  0.62200  1.0000
  Ti  Ti48      1.0  0.91648  0.81547  0.98011  1.0000
  Ti  Ti49      1.0  0.12064  0.15820  0.05944  1.0000
  Ti  Ti50      1.0  0.11206  0.15016  0.40284  1.0000
  Ti  Ti51      1.0  0.11710  0.14550  0.72552  1.0000
  Ti  Ti52      1.0  0.12633  0.40722  0.08151  1.0000
  Ti  Ti53      1.0  0.10477  0.39501  0.43977  1.0000
  Ti  Ti54      1.0  0.12035  0.39822  0.76569  1.0000
  Ti  Ti55      1.0  0.10121  0.63882  0.07252  1.0000
  Ti  Ti56      1.0  0.10671  0.63871  0.39254  1.0000
  Ti  Ti57      1.0  0.10676  0.64098  0.73775  1.0000
  Ti  Ti58      1.0  0.05760  0.95288  0.08140  1.0000
  Ti  Ti59      1.0  0.05748  0.94234  0.41560  1.0000
  Ti  Ti60      1.0  0.04415  0.94024  0.73615  1.0000
  Ti  Ti61      1.0  0.34939  0.15304  0.13939  1.0000
  Ti  Ti62      1.0  0.34526  0.14102  0.46754  1.0000
  Ti  Ti63      1.0  0.33139  0.15369  0.80170  1.0000
  Ti  Ti64      1.0  0.38366  0.38956  0.09663  1.0000
  Ti  Ti65      1.0  0.37453  0.38233  0.43195  1.0000
  Ti  Ti66      1.0  0.36905  0.39061  0.76746  1.0000
  Ti  Ti67      1.0  0.28116  0.70421  0.07121  1.0000
  Ti  Ti68      1.0  0.29369  0.67802  0.41954  1.0000
  Ti  Ti69      1.0  0.30118  0.67580  0.73851  1.0000
  Ti  Ti70      1.0  0.36340  0.88382  0.01927  1.0000
  Ti  Ti71      1.0  0.37425  0.87427  0.34928  1.0000
  Ti  Ti72      1.0  0.36471  0.87791  0.66340  1.0000
  Ti  Ti73      1.0  0.62462  0.14231  0.16982  1.0000
  Ti  Ti74      1.0  0.62159  0.14226  0.50064  1.0000
  Ti  Ti75      1.0  0.63231  0.12270  0.82996  1.0000
  Ti  Ti76      1.0  0.55013  0.46412  0.09283  1.0000
  Ti  Ti77      1.0  0.54130  0.45951  0.41667  1.0000
  Ti  Ti78      1.0  0.55262  0.44977  0.74461  1.0000
  Ti  Ti79      1.0  0.60195  0.62725  0.04779  1.0000
  Ti  Ti80      1.0  0.60756  0.62984  0.37773  1.0000
  Ti  Ti81      1.0  0.60615  0.62705  0.71869  1.0000
  Ti  Ti82      1.0  0.58054  0.92574  0.10679  1.0000
  Ti  Ti83      1.0  0.57352  0.92226  0.43103  1.0000
  Ti  Ti84      1.0  0.57990  0.91761  0.76902  1.0000
  Ti  Ti85      1.0  0.80458  0.21171  0.08549  1.0000
  Ti  Ti86      1.0  0.80630  0.20641  0.41496  1.0000
  Ti  Ti87      1.0  0.78838  0.21528  0.74793  1.0000
  Ti  Ti88      1.0  0.84385  0.38521  0.00782  1.0000
  Ti  Ti89      1.0  0.85961  0.39359  0.35478  1.0000
  Ti  Ti90      1.0  0.85005  0.39162  0.67813  1.0000
  Ti  Ti91      1.0  0.85042  0.63619  0.06735  1.0000
  Ti  Ti92      1.0  0.84611  0.64551  0.39890  1.0000
  Ti  Ti93      1.0  0.85030  0.64205  0.73091  1.0000
  Ti  Ti94      1.0  0.88485  0.89343  0.13315  1.0000
  Ti  Ti95      1.0  0.86878  0.90873  0.45244  1.0000
  Ti  Ti96      1.0  0.86479  0.88762  0.79242  1.0000
  I   I1        1.0  0.08918  0.13333  0.29071  1.0000
  I   I2        1.0  0.10558  0.10913  0.62650  1.0000
  I   I3        1.0  0.10783  0.13114  0.95021  1.0000
  I   I4        1.0  0.11158  0.34975  0.33467  1.0000
  I   I5        1.0  0.09872  0.36334  0.65318  1.0000
  I   I6        1.0  0.12881  0.35636  0.99270  1.0000
  I   I7        1.0  0.08893  0.61658  0.28763  1.0000
  I   I8        1.0  0.09005  0.60701  0.62677  1.0000
  I   I9        1.0  0.08615  0.61846  0.96674  1.0000
  I   I10       1.0  0.03468  0.92025  0.31651  1.0000
  I   I11       1.0  0.03162  0.90931  0.62905  1.0000
  I   I12       1.0  0.02922  0.93316  0.97364  1.0000
  I   I13       1.0  0.33121  0.10586  0.36631  1.0000
  I   I14       1.0  0.32298  0.11043  0.69265  1.0000
  I   I15       1.0  0.33207  0.11979  0.03836  1.0000
  I   I16       1.0  0.36046  0.35780  0.31107  1.0000
  I   I17       1.0  0.34563  0.36455  0.67451  1.0000
  I   I18       1.0  0.36317  0.35790  0.00791  1.0000
  I   I19       1.0  0.27780  0.63887  0.31994  1.0000
  I   I20       1.0  0.30443  0.63699  0.63490  1.0000
  I   I21       1.0  0.29278  0.65423  0.95603  1.0000
  I   I22       1.0  0.35613  0.84964  0.24427  1.0000
  I   I23       1.0  0.34506  0.84214  0.57778  1.0000
  I   I24       1.0  0.34243  0.86603  0.91007  1.0000
  I   I25       1.0  0.60214  0.11558  0.39924  1.0000
  I   I26       1.0  0.61104  0.09417  0.73324  1.0000
  I   I27       1.0  0.62076  0.10634  0.06513  1.0000
  I   I28       1.0  0.52658  0.42569  0.32597  1.0000
  I   I29       1.0  0.53878  0.42605  0.63684  1.0000
  I   I30       1.0  0.52078  0.44691  0.98884  1.0000
  I   I31       1.0  0.59501  0.59306  0.28928  1.0000
  I   I32       1.0  0.59682  0.59462  0.61781  1.0000
  I   I33       1.0  0.59351  0.59415  0.94391  1.0000
  I   I34       1.0  0.56902  0.89700  0.32126  1.0000
  I   I35       1.0  0.56116  0.89786  0.65024  1.0000
  I   I36       1.0  0.57626  0.88393  0.00136  1.0000
  I   I37       1.0  0.78556  0.18288  0.31563  1.0000
  I   I38       1.0  0.78050  0.17676  0.64181  1.0000
  I   I39       1.0  0.79584  0.17444  0.98253  1.0000
  I   I40       1.0  0.84891  0.34807  0.24932  1.0000
  I   I41       1.0  0.84916  0.36278  0.56866  1.0000
  I   I42       1.0  0.84897  0.33833  0.91078  1.0000
  I   I43       1.0  0.82737  0.60932  0.30656  1.0000
  I   I44       1.0  0.82686  0.62361  0.62646  1.0000
  I   I45       1.0  0.83891  0.59845  0.96451  1.0000
  I   I46       1.0  0.86033  0.87487  0.35200  1.0000
  I   I47       1.0  0.83622  0.87837  0.68630  1.0000
  I   I48       1.0  0.84295  0.87038  0.04744  1.0000
  I   I49       1.0  0.15357  0.15929  0.17049  1.0000
  I   I50       1.0  0.15711  0.16268  0.48946  1.0000
  I   I51       1.0  0.13532  0.17432  0.82666  1.0000
  I   I52       1.0  0.15728  0.41481  0.17740  1.0000
  I   I53       1.0  0.12711  0.41902  0.53748  1.0000
  I   I54       1.0  0.14703  0.41848  0.86271  1.0000
  I   I55       1.0  0.14045  0.64379  0.17724  1.0000
  I   I56       1.0  0.13479  0.65396  0.50499  1.0000
  I   I57       1.0  0.12518  0.66370  0.84768  1.0000
  I   I58       1.0  0.08830  0.96166  0.18278  1.0000
  I   I59       1.0  0.10485  0.94087  0.50755  1.0000
  I   I60       1.0  0.08626  0.94624  0.83055  1.0000
  I   I61       1.0  0.39187  0.14593  0.23786  1.0000
  I   I62       1.0  0.38825  0.14660  0.55407  1.0000
  I   I63       1.0  0.35493  0.17942  0.89963  1.0000
  I   I64       1.0  0.41663  0.39986  0.20397  1.0000
  I   I65       1.0  0.40621  0.39337  0.53922  1.0000
  I   I66       1.0  0.40339  0.40593  0.88120  1.0000
  I   I67       1.0  0.30228  0.71616  0.18138  1.0000
  I   I68       1.0  0.32133  0.70656  0.50298  1.0000
  I   I69       1.0  0.31467  0.71288  0.82835  1.0000
  I   I70       1.0  0.39816  0.88846  0.12743  1.0000
  I   I71       1.0  0.41906  0.87903  0.44723  1.0000
  I   I72       1.0  0.39024  0.90133  0.77016  1.0000
  I   I73       1.0  0.65193  0.15609  0.26941  1.0000
  I   I74       1.0  0.65434  0.14809  0.59931  1.0000
  I   I75       1.0  0.66652  0.14173  0.92308  1.0000
  I   I76       1.0  0.58869  0.46923  0.18634  1.0000
  I   I77       1.0  0.58795  0.46430  0.52424  1.0000
  I   I78       1.0  0.57226  0.47307  0.85692  1.0000
  I   I79       1.0  0.63356  0.64302  0.16657  1.0000
  I   I80       1.0  0.64671  0.63669  0.48403  1.0000
  I   I81       1.0  0.64411  0.63865  0.82385  1.0000
  I   I82       1.0  0.61353  0.94044  0.20307  1.0000
  I   I83       1.0  0.60191  0.94659  0.53720  1.0000
  I   I84       1.0  0.60433  0.93778  0.87398  1.0000
  I   I85       1.0  0.84119  0.21791  0.18527  1.0000
  I   I86       1.0  0.84199  0.22275  0.53242  1.0000
  I   I87       1.0  0.81346  0.23032  0.85826  1.0000
  I   I88       1.0  0.87307  0.41211  0.09287  1.0000
  I   I89       1.0  0.88841  0.41296  0.44670  1.0000
  I   I90       1.0  0.86707  0.40435  0.79514  1.0000
  I   I91       1.0  0.88992  0.64275  0.16835  1.0000
  I   I92       1.0  0.88567  0.65157  0.49767  1.0000
  I   I93       1.0  0.89046  0.63915  0.83770  1.0000
  I   I94       1.0  0.92934  0.89597  0.22656  1.0000
  I   I95       1.0  0.90495  0.90689  0.56554  1.0000
  I   I96       1.0  0.91113  0.88396  0.89295  1.0000
  I   I97       1.0  0.20106  0.12866  0.97985  1.0000
  I   I98       1.0  0.17844  0.11122  0.33029  1.0000
  I   I99       1.0  0.19956  0.10719  0.66110  1.0000
  I   I100      1.0  0.19751  0.39073  0.01213  1.0000
  I   I101      1.0  0.18220  0.37012  0.38132  1.0000
  I   I102      1.0  0.18917  0.36386  0.69215  1.0000
  I   I103      1.0  0.17815  0.62169  0.01433  1.0000
  I   I104      1.0  0.18486  0.59119  0.33052  1.0000
  I   I105      1.0  0.17777  0.60737  0.66745  1.0000
  I   I106      1.0  0.12419  0.90556  0.00402  1.0000
  I   I107      1.0  0.13437  0.90485  0.35117  1.0000
  I   I108      1.0  0.12188  0.89720  0.67326  1.0000
  I   I109      1.0  0.41745  0.12986  0.06390  1.0000
  I   I110      1.0  0.42244  0.09852  0.40455  1.0000
  I   I111      1.0  0.40607  0.11233  0.74429  1.0000
  I   I112      1.0  0.46172  0.34070  0.04197  1.0000
  I   I113      1.0  0.45312  0.34222  0.38213  1.0000
  I   I114      1.0  0.44187  0.36252  0.69283  1.0000
  I   I115      1.0  0.35322  0.70094  0.00691  1.0000
  I   I116      1.0  0.35626  0.67116  0.33997  1.0000
  I   I117      1.0  0.37048  0.67697  0.68060  1.0000
  I   I118      1.0  0.43719  0.85996  0.95076  1.0000
  I   I119      1.0  0.45013  0.83289  0.28481  1.0000
  I   I120      1.0  0.45636  0.83326  0.61190  1.0000
  I   I121      1.0  0.70280  0.10842  0.10092  1.0000
  I   I122      1.0  0.69788  0.10795  0.44518  1.0000
  I   I123      1.0  0.70958  0.08766  0.78133  1.0000
  I   I124      1.0  0.62434  0.42347  0.01645  1.0000
  I   I125      1.0  0.61488  0.42632  0.34155  1.0000
  I   I126      1.0  0.63924  0.41177  0.68110  1.0000
  I   I127      1.0  0.67921  0.59971  0.98927  1.0000
  I   I128      1.0  0.68769  0.60494  0.31269  1.0000
  I   I129      1.0  0.67920  0.59794  0.65389  1.0000
  I   I130      1.0  0.65663  0.89759  0.03599  1.0000
  I   I131      1.0  0.64639  0.91699  0.37119  1.0000
  I   I132      1.0  0.64878  0.90121  0.70842  1.0000
  I   I133      1.0  0.87312  0.19967  0.02072  1.0000
  I   I134      1.0  0.88501  0.17134  0.35761  1.0000
  I   I135      1.0  0.86378  0.18547  0.69464  1.0000
  I   I136      1.0  0.92562  0.36026  0.95361  1.0000
  I   I137      1.0  0.92666  0.37654  0.27993  1.0000
  I   I138      1.0  0.93622  0.36035  0.62736  1.0000
  I   I139      1.0  0.92241  0.60040  0.00967  1.0000
  I   I140      1.0  0.92239  0.59345  0.33832  1.0000
  I   I141      1.0  0.93168  0.59919  0.67572  1.0000
  I   I142      1.0  0.95092  0.84663  0.05290  1.0000
  I   I143      1.0  0.94841  0.85909  0.40713  1.0000
  I   I144      1.0  0.93954  0.83853  0.73637  1.0000
  I   I145      1.0  0.13908  0.07928  0.10401  1.0000
  I   I146      1.0  0.14051  0.07509  0.46254  1.0000
  I   I147      1.0  0.14854  0.07547  0.79727  1.0000
  I   I148      1.0  0.17278  0.30750  0.18265  1.0000
  I   I149      1.0  0.14103  0.31467  0.49679  1.0000
  I   I150      1.0  0.16564  0.31760  0.82494  1.0000
  I   I151      1.0  0.13030  0.55836  0.13336  1.0000
  I   I152      1.0  0.13614  0.56117  0.45747  1.0000
  I   I153      1.0  0.14107  0.57043  0.80579  1.0000
  I   I154      1.0  0.08544  0.87327  0.13556  1.0000
  I   I155      1.0  0.08156  0.86188  0.46543  1.0000
  I   I156      1.0  0.06883  0.86453  0.80766  1.0000
  I   I157      1.0  0.38162  0.06358  0.18973  1.0000
  I   I158      1.0  0.37699  0.06131  0.53027  1.0000
  I   I159      1.0  0.35938  0.07752  0.87746  1.0000
  I   I160      1.0  0.40669  0.30643  0.15297  1.0000
  I   I161      1.0  0.40779  0.30173  0.50368  1.0000
  I   I162      1.0  0.41133  0.30892  0.82766  1.0000
  I   I163      1.0  0.31537  0.62412  0.12384  1.0000
  I   I164      1.0  0.36118  0.59791  0.47919  1.0000
  I   I165      1.0  0.36067  0.60766  0.81231  1.0000
  I   I166      1.0  0.39812  0.80200  0.06700  1.0000
  I   I167      1.0  0.40353  0.79272  0.41568  1.0000
  I   I168      1.0  0.40775  0.80193  0.73500  1.0000
  I   I169      1.0  0.66461  0.05639  0.22438  1.0000
  I   I170      1.0  0.64461  0.05942  0.56331  1.0000
  I   I171      1.0  0.66612  0.04611  0.89989  1.0000
  I   I172      1.0  0.55990  0.38720  0.15466  1.0000
  I   I173      1.0  0.56768  0.38575  0.48440  1.0000
  I   I174      1.0  0.58961  0.37126  0.80548  1.0000
  I   I175      1.0  0.63459  0.54993  0.10711  1.0000
  I   I176      1.0  0.64284  0.54814  0.45215  1.0000
  I   I177      1.0  0.63410  0.55521  0.79074  1.0000
  I   I178      1.0  0.63066  0.84722  0.17198  1.0000
  I   I179      1.0  0.62210  0.84378  0.48706  1.0000
  I   I180      1.0  0.62685  0.83624  0.81997  1.0000
  I   I181      1.0  0.83263  0.13179  0.14968  1.0000
  I   I182      1.0  0.84567  0.12026  0.48205  1.0000
  I   I183      1.0  0.82257  0.14053  0.82089  1.0000
  I   I184      1.0  0.89253  0.31121  0.07658  1.0000
  I   I185      1.0  0.90189  0.31138  0.42348  1.0000
  I   I186      1.0  0.89353  0.31477  0.73686  1.0000
  I   I187      1.0  0.87108  0.55916  0.13572  1.0000
  I   I188      1.0  0.87249  0.56562  0.47321  1.0000
  I   I189      1.0  0.87860  0.56284  0.79524  1.0000
  I   I190      1.0  0.90533  0.81716  0.19749  1.0000
  I   I191      1.0  0.87658  0.83656  0.51797  1.0000
  I   I192      1.0  0.87138  0.82399  0.88386  1.0000
  I   I193      1.0  0.23953  0.05583  0.17880  1.0000
  I   I194      1.0  0.25641  0.06038  0.49075  1.0000
  I   I195      1.0  0.24431  0.07503  0.82555  1.0000
  I   I196      1.0  0.26055  0.30777  0.26007  1.0000
  I   I197      1.0  0.23549  0.30951  0.54603  1.0000
  I   I198      1.0  0.26557  0.32029  0.86519  1.0000
  I   I199      1.0  0.23874  0.55432  0.17771  1.0000
  I   I200      1.0  0.23243  0.55810  0.50389  1.0000
  I   I201      1.0  0.24025  0.55582  0.87010  1.0000
  I   I202      1.0  0.17964  0.85840  0.18564  1.0000
  I   I203      1.0  0.18940  0.83076  0.53692  1.0000
  I   I204      1.0  0.17069  0.84214  0.85394  1.0000
  I   I205      1.0  0.47971  0.04100  0.24600  1.0000
  I   I206      1.0  0.47244  0.06125  0.61897  1.0000
  I   I207      1.0  0.46042  0.08538  0.90284  1.0000
  I   I208      1.0  0.50281  0.28519  0.22517  1.0000
  I   I209      1.0  0.50682  0.28610  0.58455  1.0000
  I   I210      1.0  0.50391  0.30112  0.88946  1.0000
  I   I211      1.0  0.41142  0.63240  0.17908  1.0000
  I   I212      1.0  0.43120  0.64043  0.52460  1.0000
  I   I213      1.0  0.43134  0.64940  0.86833  1.0000
  I   I214      1.0  0.49808  0.80704  0.13421  1.0000
  I   I215      1.0  0.51207  0.77205  0.47541  1.0000
  I   I216      1.0  0.49143  0.81215  0.80807  1.0000
  I   I217      1.0  0.75376  0.06206  0.30678  1.0000
  I   I218      1.0  0.75129  0.04543  0.60963  1.0000
  I   I219      1.0  0.76533  0.04513  0.96340  1.0000
  I   I220      1.0  0.66531  0.36272  0.19390  1.0000
  I   I221      1.0  0.67702  0.36430  0.51057  1.0000
  I   I222      1.0  0.67719  0.34592  0.90914  1.0000
  I   I223      1.0  0.73764  0.55703  0.16901  1.0000
  I   I224      1.0  0.74175  0.54972  0.50987  1.0000
  I   I225      1.0  0.74168  0.54986  0.84820  1.0000
  I   I226      1.0  0.72639  0.84558  0.24571  1.0000
  I   I227      1.0  0.71705  0.83690  0.56529  1.0000
  I   I228      1.0  0.71706  0.84501  0.89646  1.0000
  I   I229      1.0  0.92938  0.11432  0.20030  1.0000
  I   I230      1.0  0.93460  0.12445  0.56777  1.0000
  I   I231      1.0  0.93344  0.14754  0.86855  1.0000
  I   I232      1.0  0.97810  0.33139  0.12044  1.0000
  I   I233      1.0  0.99963  0.30890  0.46123  1.0000
  I   I234      1.0  0.98159  0.32528  0.79741  1.0000
  I   I235      1.0  0.97873  0.54438  0.18813  1.0000
  I   I236      1.0  0.97965  0.55040  0.52749  1.0000
  I   I237      1.0  0.98583  0.54387  0.84794  1.0000
  I   I238      1.0  0.00799  0.79937  0.26088  1.0000
  I   I239      1.0  0.98958  0.79123  0.59406  1.0000
  I   I240      1.0  0.98509  0.77530  0.92338  1.0000
  I   I241      1.0  0.16823  0.02271  0.26135  1.0000
  I   I242      1.0  0.21032  0.01226  0.59566  1.0000
  I   I243      1.0  0.21075  0.02222  0.94016  1.0000
  I   I244      1.0  0.20516  0.24445  0.32821  1.0000
  I   I245      1.0  0.19158  0.25421  0.66033  1.0000
  I   I246      1.0  0.23097  0.26887  0.98266  1.0000
  I   I247      1.0  0.19600  0.49005  0.28383  1.0000
  I   I248      1.0  0.19025  0.50294  0.60115  1.0000
  I   I249      1.0  0.17752  0.51908  0.95982  1.0000
  I   I250      1.0  0.12112  0.81262  0.29466  1.0000
  I   I251      1.0  0.10947  0.80856  0.62066  1.0000
  I   I252      1.0  0.09325  0.81791  0.96223  1.0000
  I   I253      1.0  0.42152  0.00260  0.35025  1.0000
  I   I254      1.0  0.41863  0.00562  0.67100  1.0000
  I   I255      1.0  0.41469  0.02512  0.01301  1.0000
  I   I256      1.0  0.44201  0.24773  0.30363  1.0000
  I   I257      1.0  0.43751  0.25491  0.65912  1.0000
  I   I258      1.0  0.44257  0.25239  0.97514  1.0000
  I   I259      1.0  0.37995  0.56656  0.26905  1.0000
  I   I260      1.0  0.42012  0.56480  0.63071  1.0000
  I   I261      1.0  0.41372  0.58009  0.97124  1.0000
  I   I262      1.0  0.45982  0.73358  0.20149  1.0000
  I   I263      1.0  0.44312  0.73963  0.56255  1.0000
  I   I264      1.0  0.43399  0.76216  0.88535  1.0000
  I   I265      1.0  0.69375  0.00808  0.38080  1.0000
  I   I266      1.0  0.70533  0.99986  0.71349  1.0000
  I   I267      1.0  0.71109  0.00155  0.05376  1.0000
  I   I268      1.0  0.62643  0.31986  0.31828  1.0000
  I   I269      1.0  0.63005  0.31760  0.63498  1.0000
  I   I270      1.0  0.58659  0.34392  0.97285  1.0000
  I   I271      1.0  0.69073  0.49388  0.25313  1.0000
  I   I272      1.0  0.70059  0.49005  0.59589  1.0000
  I   I273      1.0  0.70057  0.49517  0.93881  1.0000
  I   I274      1.0  0.66984  0.79783  0.31848  1.0000
  I   I275      1.0  0.64719  0.80081  0.64860  1.0000
  I   I276      1.0  0.67239  0.78767  0.97293  1.0000
  I   I277      1.0  0.87194  0.07548  0.29554  1.0000
  I   I278      1.0  0.86860  0.07775  0.63865  1.0000
  I   I279      1.0  0.89634  0.08037  0.95827  1.0000
  I   I280      1.0  0.95189  0.27074  0.22246  1.0000
  I   I281      1.0  0.94767  0.26482  0.56525  1.0000
  I   I282      1.0  0.95462  0.24927  0.88062  1.0000
  I   I283      1.0  0.90620  0.50385  0.28091  1.0000
  I   I284      1.0  0.90477  0.52157  0.63426  1.0000
  I   I285      1.0  0.93943  0.49493  0.94984  1.0000
  I   I286      1.0  0.93808  0.76548  0.35986  1.0000
  I   I287      1.0  0.90574  0.77026  0.66223  1.0000
  I   I288      1.0  0.91987  0.75512  0.03835  1.0000
  I   I289      1.0  0.04886  0.17718  0.09891  1.0000
  I   I290      1.0  0.03974  0.17140  0.43902  1.0000
  I   I291      1.0  0.04501  0.16393  0.76149  1.0000
  I   I292      1.0  0.06167  0.41573  0.12920  1.0000
  I   I293      1.0  0.03908  0.40300  0.48098  1.0000
  I   I294      1.0  0.05750  0.40511  0.81901  1.0000
  I   I295      1.0  0.03255  0.64992  0.10586  1.0000
  I   I296      1.0  0.03519  0.66024  0.43015  1.0000
  I   I297      1.0  0.03837  0.65037  0.77951  1.0000
  I   I298      1.0  0.98640  0.98283  0.12597  1.0000
  I   I299      1.0  0.99384  0.96630  0.47726  1.0000
  I   I300      1.0  0.97086  0.97063  0.77089  1.0000
  I   I301      1.0  0.28599  0.16359  0.19741  1.0000
  I   I302      1.0  0.27409  0.15953  0.52048  1.0000
  I   I303      1.0  0.26371  0.18065  0.85755  1.0000
  I   I304      1.0  0.31280  0.41575  0.14726  1.0000
  I   I305      1.0  0.30302  0.40539  0.47150  1.0000
  I   I306      1.0  0.31240  0.40659  0.84587  1.0000
  I   I307      1.0  0.21362  0.70796  0.11010  1.0000
  I   I308      1.0  0.23538  0.68341  0.49213  1.0000
  I   I309      1.0  0.23238  0.68531  0.77831  1.0000
  I   I310      1.0  0.29200  0.90628  0.06457  1.0000
  I   I311      1.0  0.30758  0.89256  0.39765  1.0000
  I   I312      1.0  0.29660  0.89298  0.71703  1.0000
  I   I313      1.0  0.55894  0.14989  0.21657  1.0000
  I   I314      1.0  0.55282  0.16348  0.55658  1.0000
  I   I315      1.0  0.56637  0.13597  0.88477  1.0000
  I   I316      1.0  0.47643  0.50299  0.13850  1.0000
  I   I317      1.0  0.47681  0.48445  0.47917  1.0000
  I   I318      1.0  0.48109  0.46482  0.78890  1.0000
  I   I319      1.0  0.53774  0.63375  0.10154  1.0000
  I   I320      1.0  0.54397  0.64576  0.43472  1.0000
  I   I321      1.0  0.53345  0.65088  0.75865  1.0000
  I   I322      1.0  0.51444  0.93279  0.15143  1.0000
  I   I323      1.0  0.51577  0.91407  0.47540  1.0000
  I   I324      1.0  0.52564  0.90330  0.82630  1.0000
  I   I325      1.0  0.73532  0.22124  0.13031  1.0000
  I   I326      1.0  0.74034  0.22704  0.47146  1.0000
  I   I327      1.0  0.72047  0.21835  0.77870  1.0000
  I   I328      1.0  0.77728  0.39566  0.05880  1.0000
  I   I329      1.0  0.79742  0.38977  0.40386  1.0000
  I   I330      1.0  0.78635  0.39802  0.72795  1.0000
  I   I331      1.0  0.77737  0.66595  0.11093  1.0000
  I   I332      1.0  0.77715  0.67455  0.44816  1.0000
  I   I333      1.0  0.78238  0.66625  0.79001  1.0000
  I   I334      1.0  0.82242  0.94054  0.19379  1.0000
  I   I335      1.0  0.79396  0.95213  0.47228  1.0000
  I   I336      1.0  0.79279  0.92502  0.83389  1.0000
  I   I337      1.0  0.09821  0.23191  0.02688  1.0000
  I   I338      1.0  0.09489  0.22162  0.36738  1.0000
  I   I339      1.0  0.09734  0.21781  0.68623  1.0000
  I   I340      1.0  0.08963  0.47712  0.02449  1.0000
  I   I341      1.0  0.07195  0.46062  0.37278  1.0000
  I   I342      1.0  0.09304  0.47177  0.72069  1.0000
  I   I343      1.0  0.08155  0.71208  0.03909  1.0000
  I   I344      1.0  0.09687  0.70931  0.35644  1.0000
  I   I345      1.0  0.08053  0.70966  0.67394  1.0000
  I   I346      1.0  0.04833  0.02199  0.05223  1.0000
  I   I347      1.0  0.04453  0.01408  0.38730  1.0000
  I   I348      1.0  0.04060  0.00560  0.69268  1.0000
  I   I349      1.0  0.32439  0.22808  0.11716  1.0000
  I   I350      1.0  0.31636  0.21374  0.41024  1.0000
  I   I351      1.0  0.31302  0.22053  0.74591  1.0000
  I   I352      1.0  0.37686  0.45639  0.05724  1.0000
  I   I353      1.0  0.36472  0.45169  0.38405  1.0000
  I   I354      1.0  0.33843  0.46725  0.74366  1.0000
  I   I355      1.0  0.25329  0.77641  0.03975  1.0000
  I   I356      1.0  0.25136  0.74764  0.37652  1.0000
  I   I357      1.0  0.25360  0.74851  0.68257  1.0000
  I   I358      1.0  0.34807  0.95717  0.98751  1.0000
  I   I359      1.0  0.37000  0.93813  0.29705  1.0000
  I   I360      1.0  0.34396  0.94401  0.60045  1.0000
  I   I361      1.0  0.59894  0.21194  0.11034  1.0000
  I   I362      1.0  0.60697  0.21222  0.45980  1.0000
  I   I363      1.0  0.60777  0.19089  0.77509  1.0000
  I   I364      1.0  0.54654  0.52730  0.04459  1.0000
  I   I365      1.0  0.52718  0.52927  0.36860  1.0000
  I   I366      1.0  0.53584  0.52232  0.70245  1.0000
  I   I367      1.0  0.57970  0.69839  0.01016  1.0000
  I   I368      1.0  0.57763  0.70129  0.32967  1.0000
  I   I369      1.0  0.59337  0.69958  0.69755  1.0000
  I   I370      1.0  0.54783  0.99584  0.05544  1.0000
  I   I371      1.0  0.53894  0.99848  0.40881  1.0000
  I   I372      1.0  0.54775  0.99150  0.73487  1.0000
  I   I373      1.0  0.77025  0.28510  0.04355  1.0000
  I   I374      1.0  0.80172  0.27516  0.38433  1.0000
  I   I375      1.0  0.76413  0.28718  0.70814  1.0000
  I   I376      1.0  0.81992  0.45647  0.95404  1.0000
  I   I377      1.0  0.81401  0.46326  0.30920  1.0000
  I   I378      1.0  0.83716  0.46165  0.64628  1.0000
  I   I379      1.0  0.82655  0.70563  0.00943  1.0000
  I   I380      1.0  0.84162  0.71005  0.35445  1.0000
  I   I381      1.0  0.84099  0.71326  0.69573  1.0000
  I   I382      1.0  0.89416  0.95441  0.08493  1.0000
  I   I383      1.0  0.87510  0.97412  0.42361  1.0000
  I   I384      1.0  0.87387  0.94566  0.74300  1.0000
