data_image0
_chemical_formula_structural       Ti96I384
_chemical_formula_sum              "Ti96 I384"
_cell_length_a       61.2958
_cell_length_b       61.2073
_cell_length_c       29.7454
_cell_angle_alpha    88.7757
_cell_angle_beta     88.7757
_cell_angle_gamma    62.1586

_space_group_name_H-M_alt    "P 1"
_space_group_IT_number       1

loop_
  _space_group_symop_operation_xyz
  'x, y, z'

loop_
  _atom_site_type_symbol
  _atom_site_label
  _atom_site_symmetry_multiplicity
  _atom_site_fract_x
  _atom_site_fract_y
  _atom_site_fract_z
  _atom_site_occupancy
  Ti  Ti1       1.0  0.68951  0.05288  0.54358  1.0000
  Ti  Ti2       1.0  0.49346  0.14277  0.49525  1.0000
  Ti  Ti3       1.0  0.94661  0.70778  0.95423  1.0000
  Ti  Ti4       1.0  0.44134  0.50073  0.47194  1.0000
  Ti  Ti5       1.0  0.18776  0.74494  0.17944  1.0000
  Ti  Ti6       1.0  0.47379  0.00838  0.01756  1.0000
  Ti  Ti7       1.0  0.04481  0.98176  0.22990  1.0000
  Ti  Ti8       1.0  0.10218  0.58085  0.16861  1.0000
  Ti  Ti9       1.0  0.01359  0.99494  0.56995  1.0000
  Ti  Ti10      1.0  0.91216  0.89732  0.99191  1.0000
  Ti  Ti11      1.0  0.39582  0.33243  0.80012  1.0000
  Ti  Ti12      1.0  0.18309  0.71967  0.61692  1.0000
  Ti  Ti13      1.0  0.36327  0.39055  0.52520  1.0000
  Ti  Ti14      1.0  0.21526  0.07881  0.62890  1.0000
  Ti  Ti15      1.0  0.53657  0.72109  0.94126  1.0000
  Ti  Ti16      1.0  0.89110  0.41252  0.65358  1.0000
  Ti  Ti17      1.0  0.23486  0.22523  0.44739  1.0000
  Ti  Ti18      1.0  0.70965  0.59352  0.61589  1.0000
  Ti  Ti19      1.0  0.73930  0.94714  0.22140  1.0000
  Ti  Ti20      1.0  0.37840  0.11224  0.81175  1.0000
  Ti  Ti21      1.0  0.56984  0.33592  0.16314  1.0000
  Ti  Ti22      1.0  0.52056  0.93586  0.42115  1.0000
  Ti  Ti23      1.0  0.62269  0.84871  0.04239  1.0000
  Ti  Ti24      1.0  0.41216  0.91546  0.51727  1.0000
  Ti  Ti25      1.0  0.11530  0.33717  0.04575  1.0000
  Ti  Ti26      1.0  0.88971  0.36652  0.39270  1.0000
  Ti  Ti27      1.0  0.38467  0.55785  0.85675  1.0000
  Ti  Ti28      1.0  0.73175  0.55360  0.95081  1.0000
  Ti  Ti29      1.0  0.99452  0.15188  0.15104  1.0000
  Ti  Ti30      1.0  0.85420  0.49281  0.14071  1.0000
  Ti  Ti31      1.0  0.71756  0.38721  0.49559  1.0000
  Ti  Ti32      1.0  0.66070  0.97791  0.81877  1.0000
  Ti  Ti33      1.0  0.42356  0.73955  0.22777  1.0000
  Ti  Ti34      1.0  0.64935  0.75703  0.62250  1.0000
  Ti  Ti35      1.0  0.80101  0.34968  0.15739  1.0000
  Ti  Ti36      1.0  0.06060  0.49499  0.83617  1.0000
  Ti  Ti37      1.0  0.10088  0.19723  0.28645  1.0000
  Ti  Ti38      1.0  0.53614  0.25661  0.59205  1.0000
  Ti  Ti39      1.0  0.43623  0.24991  0.03148  1.0000
  Ti  Ti40      1.0  0.82634  0.81464  0.40422  1.0000
  Ti  Ti41      1.0  0.64793  0.62897  0.33498  1.0000
  Ti  Ti42      1.0  0.91644  0.86205  0.65180  1.0000
  Ti  Ti43      1.0  0.28309  0.08849  0.97337  1.0000
  Ti  Ti44      1.0  0.79253  0.67729  0.20222  1.0000
  Ti  Ti45      1.0  0.53286  0.57633  0.70137  1.0000
  Ti  Ti46      1.0  0.21680  0.00146  0.99220  1.0000
  Ti  Ti47      1.0  0.86431  0.12405  0.07462  1.0000
  Ti  Ti48      1.0  0.35263  0.57994  0.08961  1.0000
  Ti  Ti49      1.0  0.75060  0.05667  0.53868  1.0000
  Ti  Ti50      1.0  0.73815  0.18511  0.04411  1.0000
  Ti  Ti51      1.0  0.54941  0.09696  0.41185  1.0000
  Ti  Ti52      1.0  0.38736  0.57199  0.50078  1.0000
  Ti  Ti53      1.0  0.12395  0.78513  0.15264  1.0000
  Ti  Ti54      1.0  0.42387  0.08327  0.09316  1.0000
  Ti  Ti55      1.0  0.07101  0.92756  0.11434  1.0000
  Ti  Ti56      1.0  0.15068  0.59836  0.08814  1.0000
  Ti  Ti57      1.0  0.06530  0.99915  0.62563  1.0000
  Ti  Ti58      1.0  0.32029  0.03044  0.01385  1.0000
  Ti  Ti59      1.0  0.94419  0.90160  0.07901  1.0000
  Ti  Ti60      1.0  0.25486  0.70640  0.56837  1.0000
  Ti  Ti61      1.0  0.47908  0.78354  0.89068  1.0000
  Ti  Ti62      1.0  0.32446  0.42038  0.39383  1.0000
  Ti  Ti63      1.0  0.17489  0.05615  0.64430  1.0000
  Ti  Ti64      1.0  0.67577  0.55703  0.66340  1.0000
  Ti  Ti65      1.0  0.94489  0.35611  0.66205  1.0000
  Ti  Ti66      1.0  0.63616  0.18660  0.63623  1.0000
  Ti  Ti67      1.0  0.69084  0.98361  0.17299  1.0000
  Ti  Ti68      1.0  0.39594  0.07067  0.71527  1.0000
  Ti  Ti69      1.0  0.54417  0.36984  0.08102  1.0000
  Ti  Ti70      1.0  0.48103  0.90170  0.46975  1.0000
  Ti  Ti71      1.0  0.61014  0.86945  0.14765  1.0000
  Ti  Ti72      1.0  0.86421  0.81298  0.07769  1.0000
  Ti  Ti73      1.0  0.32522  0.61347  0.83180  1.0000
  Ti  Ti74      1.0  0.18434  0.30686  0.98141  1.0000
  Ti  Ti75      1.0  0.83836  0.38015  0.40663  1.0000
  Ti  Ti76      1.0  0.91915  0.47862  0.09714  1.0000
  Ti  Ti77      1.0  0.67630  0.61286  0.95333  1.0000
  Ti  Ti78      1.0  0.05562  0.09780  0.14974  1.0000
  Ti  Ti79      1.0  0.41392  0.74670  0.32074  1.0000
  Ti  Ti80      1.0  0.65380  0.41101  0.48835  1.0000
  Ti  Ti81      1.0  0.71753  0.94271  0.91536  1.0000
  Ti  Ti82      1.0  0.69819  0.75729  0.70156  1.0000
  Ti  Ti83      1.0  0.82562  0.32694  0.99454  1.0000
  Ti  Ti84      1.0  0.08466  0.52545  0.92509  1.0000
  Ti  Ti85      1.0  0.13534  0.14921  0.25651  1.0000
  Ti  Ti86      1.0  0.57439  0.19246  0.71388  1.0000
  Ti  Ti87      1.0  0.51339  0.21539  0.02174  1.0000
  Ti  Ti88      1.0  0.83077  0.74809  0.40161  1.0000
  Ti  Ti89      1.0  0.61955  0.64583  0.42852  1.0000
  Ti  Ti90      1.0  0.93679  0.81666  0.59682  1.0000
  Ti  Ti91      1.0  0.48795  0.59141  0.77411  1.0000
  Ti  Ti92      1.0  0.95495  0.18452  0.86651  1.0000
  Ti  Ti93      1.0  0.72569  0.72972  0.14262  1.0000
  Ti  Ti94      1.0  0.38075  0.62190  0.10962  1.0000
  Ti  Ti95      1.0  0.14639  0.02992  0.94770  1.0000
  Ti  Ti96      1.0  0.79443  0.12128  0.12187  1.0000
  I   I1        1.0  0.78728  0.12290  0.21248  1.0000
  I   I2        1.0  0.55211  0.10087  0.49725  1.0000
  I   I3        1.0  0.64432  0.08902  0.56851  1.0000
  I   I4        1.0  0.12997  0.82244  0.11500  1.0000
  I   I5        1.0  0.48734  0.00754  0.93170  1.0000
  I   I6        1.0  0.40777  0.12879  0.06578  1.0000
  I   I7        1.0  0.12090  0.63997  0.04564  1.0000
  I   I8        1.0  0.16481  0.56947  0.01822  1.0000
  I   I9        1.0  0.07012  0.97210  0.55825  1.0000
  I   I10       1.0  0.88141  0.87712  0.97979  1.0000
  I   I11       1.0  0.42172  0.35483  0.81827  1.0000
  I   I12       1.0  0.22728  0.74371  0.13537  1.0000
  I   I13       1.0  0.37336  0.41007  0.44297  1.0000
  I   I14       1.0  0.22146  0.03138  0.60423  1.0000
  I   I15       1.0  0.51357  0.70846  0.87794  1.0000
  I   I16       1.0  0.98565  0.32591  0.70622  1.0000
  I   I17       1.0  0.68313  0.15136  0.65314  1.0000
  I   I18       1.0  0.74258  0.59130  0.67135  1.0000
  I   I19       1.0  0.42607  0.02220  0.73818  1.0000
  I   I20       1.0  0.44147  0.29143  0.78582  1.0000
  I   I21       1.0  0.57637  0.37331  0.00673  1.0000
  I   I22       1.0  0.57882  0.85034  0.04093  1.0000
  I   I23       1.0  0.62568  0.86181  0.22652  1.0000
  I   I24       1.0  0.49935  0.85510  0.44204  1.0000
  I   I25       1.0  0.20207  0.27531  0.91485  1.0000
  I   I26       1.0  0.88269  0.34943  0.47648  1.0000
  I   I27       1.0  0.34995  0.59059  0.91271  1.0000
  I   I28       1.0  0.63172  0.61925  0.97548  1.0000
  I   I29       1.0  0.07662  0.05941  0.10589  1.0000
  I   I30       1.0  0.94113  0.50558  0.11256  1.0000
  I   I31       1.0  0.62473  0.41735  0.56226  1.0000
  I   I32       1.0  0.73943  0.89655  0.89802  1.0000
  I   I33       1.0  0.39730  0.78104  0.38666  1.0000
  I   I34       1.0  0.76760  0.38832  0.11695  1.0000
  I   I35       1.0  0.10007  0.50032  0.99796  1.0000
  I   I36       1.0  0.60785  0.75375  0.61920  1.0000
  I   I37       1.0  0.07468  0.18740  0.34847  1.0000
  I   I38       1.0  0.53215  0.18964  0.95254  1.0000
  I   I39       1.0  0.15148  0.11296  0.20184  1.0000
  I   I40       1.0  0.62945  0.59905  0.40241  1.0000
  I   I41       1.0  0.91211  0.83434  0.52503  1.0000
  I   I42       1.0  0.78642  0.75059  0.42438  1.0000
  I   I43       1.0  0.35977  0.02841  0.97116  1.0000
  I   I44       1.0  0.71607  0.77415  0.17202  1.0000
  I   I45       1.0  0.50399  0.60074  0.84506  1.0000
  I   I46       1.0  0.25130  0.99751  0.93559  1.0000
  I   I47       1.0  0.84754  0.10452  0.13954  1.0000
  I   I48       1.0  0.38156  0.53102  0.09796  1.0000
  I   I49       1.0  0.75409  0.01193  0.56288  1.0000
  I   I50       1.0  0.44488  0.16662  0.47266  1.0000
  I   I51       1.0  0.48970  0.13169  0.57306  1.0000
  I   I52       1.0  0.48872  0.49004  0.48699  1.0000
  I   I53       1.0  0.16421  0.79100  0.22172  1.0000
  I   I54       1.0  0.41556  0.09089  0.17943  1.0000
  I   I55       1.0  0.06420  0.96516  0.30942  1.0000
  I   I56       1.0  0.13566  0.53602  0.18845  1.0000
  I   I57       1.0  0.02466  0.03278  0.57528  1.0000
  I   I58       1.0  0.92027  0.89846  0.90345  1.0000
  I   I59       1.0  0.89212  0.92210  0.07101  1.0000
  I   I60       1.0  0.18619  0.67587  0.62359  1.0000
  I   I61       1.0  0.35095  0.39542  0.33034  1.0000
  I   I62       1.0  0.28083  0.42648  0.36570  1.0000
  I   I63       1.0  0.26452  0.05927  0.64623  1.0000
  I   I64       1.0  0.89489  0.40609  0.56443  1.0000
  I   I65       1.0  0.96868  0.33917  0.58294  1.0000
  I   I66       1.0  0.64896  0.22042  0.63409  1.0000
  I   I67       1.0  0.67276  0.03024  0.19493  1.0000
  I   I68       1.0  0.33142  0.14272  0.83072  1.0000
  I   I69       1.0  0.61079  0.29440  0.17803  1.0000
  I   I70       1.0  0.46085  0.95198  0.46401  1.0000
  I   I71       1.0  0.62012  0.88709  0.98963  1.0000
  I   I72       1.0  0.89488  0.83206  0.08253  1.0000
  I   I73       1.0  0.32717  0.62627  0.74623  1.0000
  I   I74       1.0  0.81423  0.39611  0.48106  1.0000
  I   I75       1.0  0.86551  0.41343  0.43158  1.0000
  I   I76       1.0  0.77576  0.53200  0.91810  1.0000
  I   I77       1.0  0.67833  0.61115  0.86758  1.0000
  I   I78       1.0  0.08985  0.11250  0.13153  1.0000
  I   I79       1.0  0.44956  0.76293  0.27964  1.0000
  I   I80       1.0  0.68450  0.39048  0.42151  1.0000
  I   I81       1.0  0.66303  0.97886  0.92125  1.0000
  I   I82       1.0  0.67696  0.72324  0.69379  1.0000
  I   I83       1.0  0.82300  0.37324  0.18816  1.0000
  I   I84       1.0  0.12155  0.52006  0.88209  1.0000
  I   I85       1.0  0.14296  0.19369  0.22690  1.0000
  I   I86       1.0  0.53709  0.24261  0.68277  1.0000
  I   I87       1.0  0.47433  0.25313  0.07304  1.0000
  I   I88       1.0  0.79117  0.86156  0.41327  1.0000
  I   I89       1.0  0.59579  0.68269  0.37699  1.0000
  I   I90       1.0  0.93039  0.88804  0.70114  1.0000
  I   I91       1.0  0.52747  0.54321  0.76400  1.0000
  I   I92       1.0  0.93730  0.20889  0.79420  1.0000
  I   I93       1.0  0.77384  0.71120  0.12360  1.0000
  I   I94       1.0  0.38432  0.59112  0.04008  1.0000
  I   I95       1.0  0.11342  0.07444  0.96207  1.0000
  I   I96       1.0  0.80142  0.07664  0.12331  1.0000
  I   I97       1.0  0.97204  0.71770  0.01536  1.0000
  I   I98       1.0  0.78379  0.04606  0.48024  1.0000
  I   I99       1.0  0.51587  0.15370  0.41988  1.0000
  I   I100      1.0  0.45520  0.45470  0.49644  1.0000
  I   I101      1.0  0.35962  0.58268  0.57493  1.0000
  I   I102      1.0  0.21892  0.71113  0.23473  1.0000
  I   I103      1.0  0.99838  0.01167  0.25267  1.0000
  I   I104      1.0  0.10377  0.90939  0.04490  1.0000
  I   I105      1.0  0.97234  0.02060  0.61495  1.0000
  I   I106      1.0  0.28223  0.72567  0.61110  1.0000
  I   I107      1.0  0.94076  0.87640  0.15952  1.0000
  I   I108      1.0  0.28501  0.66557  0.52949  1.0000
  I   I109      1.0  0.50915  0.76099  0.82322  1.0000
  I   I110      1.0  0.38918  0.34441  0.51797  1.0000
  I   I111      1.0  0.20915  0.06378  0.71773  1.0000
  I   I112      1.0  0.69541  0.53297  0.73712  1.0000
  I   I113      1.0  0.94979  0.40169  0.64506  1.0000
  I   I114      1.0  0.21140  0.26123  0.50216  1.0000
  I   I115      1.0  0.74676  0.98186  0.26577  1.0000
  I   I116      1.0  0.64645  0.98945  0.14706  1.0000
  I   I117      1.0  0.42439  0.08337  0.76756  1.0000
  I   I118      1.0  0.50483  0.90615  0.37300  1.0000
  I   I119      1.0  0.49852  0.97664  0.37801  1.0000
  I   I120      1.0  0.84459  0.83241  0.15777  1.0000
  I   I121      1.0  0.41968  0.53025  0.91320  1.0000
  I   I122      1.0  0.13107  0.31145  0.96602  1.0000
  I   I123      1.0  0.91997  0.32341  0.36122  1.0000
  I   I124      1.0  0.87209  0.52151  0.06481  1.0000
  I   I125      1.0  0.70634  0.58459  0.03088  1.0000
  I   I126      1.0  0.07153  0.07330  0.22707  1.0000
  I   I127      1.0  0.40503  0.70992  0.20681  1.0000
  I   I128      1.0  0.72785  0.42036  0.44271  1.0000
  I   I129      1.0  0.75658  0.94683  0.94010  1.0000
  I   I130      1.0  0.09282  0.46099  0.89142  1.0000
  I   I131      1.0  0.65307  0.77996  0.55272  1.0000
  I   I132      1.0  0.86637  0.29924  0.95569  1.0000
  I   I133      1.0  0.41231  0.22580  0.04672  1.0000
  I   I134      1.0  0.52809  0.29786  0.62573  1.0000
  I   I135      1.0  0.54033  0.18312  0.66686  1.0000
  I   I136      1.0  0.88979  0.85146  0.71501  1.0000
  I   I137      1.0  0.86959  0.75851  0.40398  1.0000
  I   I138      1.0  0.66433  0.65761  0.31066  1.0000
  I   I139      1.0  0.51947  0.62602  0.68815  1.0000
  I   I140      1.0  0.92039  0.18613  0.92351  1.0000
  I   I141      1.0  0.69816  0.72218  0.19952  1.0000
  I   I142      1.0  0.35051  0.65688  0.05470  1.0000
  I   I143      1.0  0.11570  0.01642  0.98413  1.0000
  I   I144      1.0  0.89053  0.12921  0.13633  1.0000
  I   I145      1.0  0.71256  0.06525  0.61707  1.0000
  I   I146      1.0  0.56392  0.05014  0.39361  1.0000
  I   I147      1.0  0.90308  0.74118  0.94697  1.0000
  I   I148      1.0  0.43339  0.54327  0.53422  1.0000
  I   I149      1.0  0.08543  0.77677  0.11441  1.0000
  I   I150      1.0  0.45664  0.06226  0.03149  1.0000
  I   I151      1.0  0.11059  0.92061  0.17012  1.0000
  I   I152      1.0  0.15017  0.58660  0.18942  1.0000
  I   I153      1.0  0.99529  0.01393  0.49006  1.0000
  I   I154      1.0  0.26126  0.13104  0.99579  1.0000
  I   I155      1.0  0.36531  0.32314  0.85305  1.0000
  I   I156      1.0  0.14250  0.74631  0.56964  1.0000
  I   I157      1.0  0.52386  0.77381  0.93943  1.0000
  I   I158      1.0  0.14484  0.04405  0.60503  1.0000
  I   I159      1.0  0.47143  0.83231  0.89192  1.0000
  I   I160      1.0  0.62875  0.58789  0.67622  1.0000
  I   I161      1.0  0.20787  0.21382  0.39626  1.0000
  I   I162      1.0  0.69104  0.64239  0.63020  1.0000
  I   I163      1.0  0.71096  0.99060  0.09982  1.0000
  I   I164      1.0  0.36007  0.08073  0.78253  1.0000
  I   I165      1.0  0.50083  0.39328  0.03343  1.0000
  I   I166      1.0  0.52756  0.89433  0.48056  1.0000
  I   I167      1.0  0.65222  0.80884  0.99869  1.0000
  I   I168      1.0  0.37122  0.92076  0.48729  1.0000
  I   I169      1.0  0.10994  0.31091  0.10620  1.0000
  I   I170      1.0  0.09950  0.37447  0.10558  1.0000
  I   I171      1.0  0.35215  0.54206  0.83581  1.0000
  I   I172      1.0  0.92915  0.47544  0.01201  1.0000
  I   I173      1.0  0.02498  0.13513  0.07291  1.0000
  I   I174      1.0  0.84808  0.52927  0.20125  1.0000
  I   I175      1.0  0.75396  0.38696  0.53692  1.0000
  I   I176      1.0  0.70848  0.93415  0.00107  1.0000
  I   I177      1.0  0.44808  0.72051  0.37777  1.0000
  I   I178      1.0  0.71178  0.76540  0.61908  1.0000
  I   I179      1.0  0.81422  0.30926  0.10591  1.0000
  I   I180      1.0  0.04091  0.51110  0.92524  1.0000
  I   I181      1.0  0.06356  0.23453  0.24166  1.0000
  I   I182      1.0  0.55633  0.18861  0.79152  1.0000
  I   I183      1.0  0.40136  0.28966  0.07450  1.0000
  I   I184      1.0  0.80653  0.79819  0.47017  1.0000
  I   I185      1.0  0.60726  0.63533  0.29581  1.0000
  I   I186      1.0  0.97286  0.79262  0.54054  1.0000
  I   I187      1.0  0.99779  0.14140  0.86555  1.0000
  I   I188      1.0  0.79947  0.70959  0.24558  1.0000
  I   I189      1.0  0.57493  0.56856  0.74184  1.0000
  I   I190      1.0  0.19638  0.04027  0.04472  1.0000
  I   I191      1.0  0.77339  0.17355  0.11596  1.0000
  I   I192      1.0  0.31746  0.56631  0.11990  1.0000
  I   I193      1.0  0.71063  0.08757  0.49442  1.0000
  I   I194      1.0  0.76689  0.17343  0.97188  1.0000
  I   I195      1.0  0.96696  0.70885  0.87480  1.0000
  I   I196      1.0  0.44169  0.50720  0.38580  1.0000
  I   I197      1.0  0.31448  0.99811  0.96379  1.0000
  I   I198      1.0  0.44909  0.02876  0.10828  1.0000
  I   I199      1.0  0.04430  0.90792  0.09071  1.0000
  I   I200      1.0  0.18088  0.61258  0.10617  1.0000
  I   I201      1.0  0.01539  0.95282  0.56356  1.0000
  I   I202      1.0  0.94904  0.93718  0.12429  1.0000
  I   I203      1.0  0.59280  0.36447  0.11851  1.0000
  I   I204      1.0  0.16845  0.74078  0.69670  1.0000
  I   I205      1.0  0.33259  0.38174  0.45274  1.0000
  I   I206      1.0  0.15064  0.06444  0.71484  1.0000
  I   I207      1.0  0.43453  0.79601  0.87054  1.0000
  I   I208      1.0  0.84375  0.42730  0.68197  1.0000
  I   I209      1.0  0.26739  0.18304  0.48037  1.0000
  I   I210      1.0  0.66526  0.58945  0.59129  1.0000
  I   I211      1.0  0.71712  0.93187  0.15590  1.0000
  I   I212      1.0  0.38590  0.15172  0.81416  1.0000
  I   I213      1.0  0.55092  0.34382  0.24405  1.0000
  I   I214      1.0  0.56388  0.92612  0.38346  1.0000
  I   I215      1.0  0.65310  0.85702  0.10328  1.0000
  I   I216      1.0  0.40659  0.89191  0.59178  1.0000
  I   I217      1.0  0.07050  0.36117  0.00904  1.0000
  I   I218      1.0  0.86091  0.37963  0.32308  1.0000
  I   I219      1.0  0.37625  0.60491  0.82875  1.0000
  I   I220      1.0  0.70245  0.54788  0.89895  1.0000
  I   I221      1.0  0.97901  0.20092  0.13509  1.0000
  I   I222      1.0  0.82180  0.51452  0.07739  1.0000
  I   I223      1.0  0.69077  0.36132  0.53257  1.0000
  I   I224      1.0  0.70710  0.96895  0.83244  1.0000
  I   I225      1.0  0.37638  0.77489  0.25106  1.0000
  I   I226      1.0  0.74603  0.71486  0.71697  1.0000
  I   I227      1.0  0.76473  0.34820  0.20853  1.0000
  I   I228      1.0  0.02743  0.48050  0.83705  1.0000
  I   I229      1.0  0.17713  0.14154  0.29712  1.0000
  I   I230      1.0  0.55328  0.25896  0.51170  1.0000
  I   I231      1.0  0.52603  0.25076  0.99958  1.0000
  I   I232      1.0  0.86776  0.81645  0.41327  1.0000
  I   I233      1.0  0.67627  0.61757  0.41861  1.0000
  I   I234      1.0  0.95179  0.85825  0.59072  1.0000
  I   I235      1.0  0.31558  0.08779  0.90646  1.0000
  I   I236      1.0  0.81077  0.64150  0.26240  1.0000
  I   I237      1.0  0.55778  0.55023  0.63188  1.0000
  I   I238      1.0  0.25402  0.98068  0.05514  1.0000
  I   I239      1.0  0.82386  0.11798  0.03305  1.0000
  I   I240      1.0  0.36990  0.65440  0.17867  1.0000
  I   I241      1.0  0.66205  0.05923  0.46878  1.0000
  I   I242      1.0  0.49641  0.18284  0.51171  1.0000
  I   I243      1.0  0.95903  0.66265  0.98355  1.0000
  I   I244      1.0  0.39676  0.51574  0.49179  1.0000
  I   I245      1.0  0.10005  0.79867  0.22756  1.0000
  I   I246      1.0  0.51409  0.97355  0.05586  1.0000
  I   I247      1.0  0.03865  0.97852  0.13452  1.0000
  I   I248      1.0  0.09005  0.60214  0.24489  1.0000
  I   I249      1.0  0.04758  0.97771  0.68960  1.0000
  I   I250      1.0  0.93856  0.92855  0.00132  1.0000
  I   I251      1.0  0.37136  0.35542  0.72913  1.0000
  I   I252      1.0  0.25419  0.73701  0.50342  1.0000
  I   I253      1.0  0.38851  0.40058  0.57961  1.0000
  I   I254      1.0  0.22926  0.08694  0.54103  1.0000
  I   I255      1.0  0.48070  0.75517  0.95902  1.0000
  I   I256      1.0  0.92693  0.32671  0.66979  1.0000
  I   I257      1.0  0.27066  0.23481  0.40593  1.0000
  I   I258      1.0  0.68040  0.51725  0.61720  1.0000
  I   I259      1.0  0.75419  0.90540  0.26461  1.0000
  I   I260      1.0  0.38644  0.06596  0.63207  1.0000
  I   I261      1.0  0.51738  0.36139  0.14873  1.0000
  I   I262      1.0  0.52078  0.95678  0.49403  1.0000
  I   I263      1.0  0.63542  0.81433  0.11818  1.0000
  I   I264      1.0  0.39946  0.95930  0.54257  1.0000
  I   I265      1.0  0.20560  0.33428  0.96052  1.0000
  I   I266      1.0  0.84667  0.33569  0.39545  1.0000
  I   I267      1.0  0.41382  0.53918  0.78220  1.0000
  I   I268      1.0  0.74255  0.51581  0.00870  1.0000
  I   I269      1.0  0.01003  0.10173  0.15568  1.0000
  I   I270      1.0  0.95687  0.43492  0.11801  1.0000
  I   I271      1.0  0.67541  0.43890  0.52761  1.0000
  I   I272      1.0  0.66000  0.98900  0.73103  1.0000
  I   I273      1.0  0.46591  0.69895  0.23539  1.0000
  I   I274      1.0  0.70000  0.77096  0.78277  1.0000
  I   I275      1.0  0.79654  0.30603  0.97385  1.0000
  I   I276      1.0  0.08262  0.47839  0.76076  1.0000
  I   I277      1.0  0.12752  0.20074  0.35322  1.0000
  I   I278      1.0  0.58727  0.20699  0.59857  1.0000
  I   I279      1.0  0.47246  0.20304  0.00623  1.0000
  I   I280      1.0  0.84502  0.72285  0.32519  1.0000
  I   I281      1.0  0.67619  0.58927  0.28616  1.0000
  I   I282      1.0  0.87848  0.89810  0.61696  1.0000
  I   I283      1.0  0.24946  0.09386  0.90391  1.0000
  I   I284      1.0  0.75467  0.66638  0.18749  1.0000
  I   I285      1.0  0.48733  0.57465  0.67547  1.0000
  I   I286      1.0  0.18456  0.04352  0.93098  1.0000
  I   I287      1.0  0.74760  0.13825  0.10371  1.0000
  I   I288      1.0  0.37415  0.58672  0.16069  1.0000
  I   I289      1.0  0.67866  0.01962  0.57990  1.0000
  I   I290      1.0  0.71848  0.22717  0.07830  1.0000
  I   I291      1.0  0.50405  0.10136  0.41554  1.0000
  I   I292      1.0  0.34992  0.57899  0.44752  1.0000
  I   I293      1.0  0.16314  0.74340  0.10445  1.0000
  I   I294      1.0  0.44092  0.99297  0.02037  1.0000
  I   I295      1.0  0.05393  0.02088  0.21536  1.0000
  I   I296      1.0  0.06622  0.57116  0.16502  1.0000
  I   I297      1.0  0.05509  0.04160  0.67201  1.0000
  I   I298      1.0  0.26500  0.06102  0.01686  1.0000
  I   I299      1.0  0.95223  0.85070  0.02327  1.0000
  I   I300      1.0  0.21837  0.68991  0.54662  1.0000
  I   I301      1.0  0.57869  0.71216  0.90346  1.0000
  I   I302      1.0  0.31580  0.46709  0.39000  1.0000
  I   I303      1.0  0.20942  0.12039  0.65266  1.0000
  I   I304      1.0  0.72725  0.54640  0.64287  1.0000
  I   I305      1.0  0.87276  0.46176  0.65777  1.0000
  I   I306      1.0  0.61579  0.19825  0.72903  1.0000
  I   I307      1.0  0.77685  0.93803  0.16765  1.0000
  I   I308      1.0  0.39645  0.09520  0.88981  1.0000
  I   I309      1.0  0.57215  0.32053  0.07460  1.0000
  I   I310      1.0  0.45967  0.89227  0.55477  1.0000
  I   I311      1.0  0.56799  0.86933  0.15722  1.0000
  I   I312      1.0  0.84966  0.82846  0.99597  1.0000
  I   I313      1.0  0.30103  0.66112  0.85766  1.0000
  I   I314      1.0  0.22191  0.27573  0.02646  1.0000
  I   I315      1.0  0.92081  0.38624  0.37836  1.0000
  I   I316      1.0  0.83361  0.47171  0.18911  1.0000
  I   I317      1.0  0.73048  0.60419  0.94812  1.0000
  I   I318      1.0  0.01351  0.14874  0.22685  1.0000
  I   I319      1.0  0.41413  0.76879  0.15594  1.0000
  I   I320      1.0  0.75102  0.34990  0.45182  1.0000
  I   I321      1.0  0.64919  0.02625  0.81845  1.0000
  I   I322      1.0  0.67621  0.71329  0.58768  1.0000
  I   I323      1.0  0.83770  0.35523  0.04712  1.0000
  I   I324      1.0  0.07153  0.57011  0.94661  1.0000
  I   I325      1.0  0.12462  0.12699  0.32262  1.0000
  I   I326      1.0  0.60458  0.14862  0.68960  1.0000
  I   I327      1.0  0.54870  0.19565  0.07878  1.0000
  I   I328      1.0  0.81546  0.79493  0.33340  1.0000
  I   I329      1.0  0.57882  0.64782  0.47290  1.0000
  I   I330      1.0  0.95725  0.81399  0.68361  1.0000
  I   I331      1.0  0.46344  0.57771  0.83326  1.0000
  I   I332      1.0  0.31769  0.06871  0.06925  1.0000
  I   I333      1.0  0.70628  0.74848  0.06385  1.0000
  I   I334      1.0  0.42587  0.61835  0.10256  1.0000
  I   I335      1.0  0.14686  0.01332  0.86608  1.0000
  I   I336      1.0  0.90137  0.08565  0.03495  1.0000
  I   I337      1.0  0.76820  0.06436  0.61009  1.0000
  I   I338      1.0  0.69733  0.19303  0.00528  1.0000
  I   I339      1.0  0.57863  0.10943  0.36500  1.0000
  I   I340      1.0  0.39795  0.60260  0.46010  1.0000
  I   I341      1.0  0.15474  0.73372  0.21887  1.0000
  I   I342      1.0  0.38795  0.07601  0.05383  1.0000
  I   I343      1.0  0.04755  0.93329  0.20393  1.0000
  I   I344      1.0  0.11168  0.58285  0.07152  1.0000
  I   I345      1.0  0.11290  0.97693  0.64891  1.0000
  I   I346      1.0  0.33680  0.00714  0.08708  1.0000
  I   I347      1.0  0.99320  0.87209  0.05858  1.0000
  I   I348      1.0  0.21144  0.74473  0.61115  1.0000
  I   I349      1.0  0.53857  0.72495  0.02912  1.0000
  I   I350      1.0  0.32695  0.40094  0.58158  1.0000
  I   I351      1.0  0.15982  0.10202  0.61046  1.0000
  I   I352      1.0  0.73450  0.59069  0.54498  1.0000
  I   I353      1.0  0.90981  0.38569  0.72963  1.0000
  I   I354      1.0  0.64233  0.17445  0.54735  1.0000
  I   I355      1.0  0.68585  0.96722  0.25530  1.0000
  I   I356      1.0  0.37847  0.12164  0.70710  1.0000
  I   I357      1.0  0.53233  0.41499  0.08974  1.0000
  I   I358      1.0  0.43414  0.91213  0.44020  1.0000
  I   I359      1.0  0.58964  0.91380  0.11681  1.0000
  I   I360      1.0  0.90005  0.77047  0.08643  1.0000
  I   I361      1.0  0.29377  0.59460  0.82311  1.0000
  I   I362      1.0  0.16566  0.32431  0.06200  1.0000
  I   I363      1.0  0.79915  0.40024  0.35373  1.0000
  I   I364      1.0  0.88770  0.45234  0.10252  1.0000
  I   I365      1.0  0.66964  0.65600  0.97601  1.0000
  I   I366      1.0  0.94683  0.15976  0.14505  1.0000
  I   I367      1.0  0.38773  0.72314  0.33799  1.0000
  I   I368      1.0  0.62528  0.44587  0.43028  1.0000
  I   I369      1.0  0.67819  0.93060  0.80827  1.0000
  I   I370      1.0  0.64836  0.78658  0.70070  1.0000
  I   I371      1.0  0.79639  0.36620  0.95064  1.0000
  I   I372      1.0  0.05203  0.54168  0.84930  1.0000
  I   I373      1.0  0.09102  0.17157  0.21341  1.0000
  I   I374      1.0  0.49418  0.25463  0.58244  1.0000
  I   I375      1.0  0.42659  0.27876  0.95266  1.0000
  I   I376      1.0  0.85762  0.71564  0.46643  1.0000
  I   I377      1.0  0.63982  0.66404  0.48387  1.0000
  I   I378      1.0  0.91685  0.79104  0.62774  1.0000
  I   I379      1.0  0.45670  0.63584  0.76744  1.0000
  I   I380      1.0  0.97601  0.20567  0.90758  1.0000
  I   I381      1.0  0.82107  0.64922  0.13017  1.0000
  I   I382      1.0  0.31405  0.62805  0.09437  1.0000
  I   I383      1.0  0.19063  0.97645  0.96324  1.0000
  I   I384      1.0  0.84091  0.17019  0.06473  1.0000
