data_image0
_chemical_formula_structural       Ti96I384
_chemical_formula_sum              "Ti96 I384"
_cell_length_a       73.4302
_cell_length_b       73.4411
_cell_length_c       35.8882
_cell_angle_alpha    88.7757
_cell_angle_beta     88.7757
_cell_angle_gamma    62.1586

_space_group_name_H-M_alt    "P 1"
_space_group_IT_number       1

loop_
  _space_group_symop_operation_xyz
  'x, y, z'

loop_
  _atom_site_type_symbol
  _atom_site_label
  _atom_site_symmetry_multiplicity
  _atom_site_fract_x
  _atom_site_fract_y
  _atom_site_fract_z
  _atom_site_occupancy
  Ti  Ti1       1.0  0.67708  0.38784  0.86860  1.0000
  Ti  Ti2       1.0  0.37223  0.78407  0.30115  1.0000
  Ti  Ti3       1.0  0.24755  0.01132  0.02519  1.0000
  Ti  Ti4       1.0  0.12170  0.23486  0.90688  1.0000
  Ti  Ti5       1.0  0.48603  0.77176  0.52919  1.0000
  Ti  Ti6       1.0  0.37368  0.30937  0.39957  1.0000
  Ti  Ti7       1.0  0.54390  0.73608  0.99470  1.0000
  Ti  Ti8       1.0  0.25679  0.57253  0.62864  1.0000
  Ti  Ti9       1.0  0.35872  0.28052  0.75146  1.0000
  Ti  Ti10      1.0  0.63230  0.61501  0.15698  1.0000
  Ti  Ti11      1.0  0.19589  0.12806  0.09729  1.0000
  Ti  Ti12      1.0  0.86784  0.09103  0.91741  1.0000
  Ti  Ti13      1.0  0.81667  0.77932  0.45417  1.0000
  Ti  Ti14      1.0  0.07060  0.23349  0.87188  1.0000
  Ti  Ti15      1.0  0.79712  0.62360  0.56033  1.0000
  Ti  Ti16      1.0  0.24523  0.40320  0.42443  1.0000
  Ti  Ti17      1.0  0.06965  0.14639  0.20114  1.0000
  Ti  Ti18      1.0  0.21332  0.30256  0.78196  1.0000
  Ti  Ti19      1.0  0.03560  0.86493  0.23289  1.0000
  Ti  Ti20      1.0  0.28513  0.74403  0.58723  1.0000
  Ti  Ti21      1.0  0.21512  0.55891  0.58338  1.0000
  Ti  Ti22      1.0  0.01459  0.16743  0.46472  1.0000
  Ti  Ti23      1.0  0.12935  0.98302  0.44742  1.0000
  Ti  Ti24      1.0  0.79733  0.11598  0.12330  1.0000
  Ti  Ti25      1.0  0.60737  0.50573  0.24765  1.0000
  Ti  Ti26      1.0  0.58317  0.95199  0.85267  1.0000
  Ti  Ti27      1.0  0.67741  0.34477  0.26621  1.0000
  Ti  Ti28      1.0  0.30845  0.04425  0.39020  1.0000
  Ti  Ti29      1.0  0.34098  0.76319  0.08240  1.0000
  Ti  Ti30      1.0  0.42075  0.94861  0.34638  1.0000
  Ti  Ti31      1.0  0.28103  0.91278  0.48964  1.0000
  Ti  Ti32      1.0  0.41071  0.85170  0.81969  1.0000
  Ti  Ti33      1.0  0.38742  0.53058  0.87862  1.0000
  Ti  Ti34      1.0  0.72523  0.57017  0.37397  1.0000
  Ti  Ti35      1.0  0.10804  0.53925  0.55519  1.0000
  Ti  Ti36      1.0  0.73912  0.18030  0.20169  1.0000
  Ti  Ti37      1.0  0.96240  0.96818  0.78139  1.0000
  Ti  Ti38      1.0  0.57142  0.00213  0.42353  1.0000
  Ti  Ti39      1.0  0.79149  0.73693  0.93759  1.0000
  Ti  Ti40      1.0  0.59672  0.74327  0.60567  1.0000
  Ti  Ti41      1.0  0.74574  0.40995  0.09768  1.0000
  Ti  Ti42      1.0  0.99849  0.46402  0.04046  1.0000
  Ti  Ti43      1.0  0.83992  0.94045  0.61410  1.0000
  Ti  Ti44      1.0  0.69271  0.45648  0.04664  1.0000
  Ti  Ti45      1.0  0.16889  0.21033  0.41945  1.0000
  Ti  Ti46      1.0  0.40621  0.97010  0.05736  1.0000
  Ti  Ti47      1.0  0.25211  0.93668  0.89377  1.0000
  Ti  Ti48      1.0  0.07209  0.08382  0.02893  1.0000
  Ti  Ti49      1.0  0.76218  0.89028  0.31304  1.0000
  Ti  Ti50      1.0  0.01036  0.29487  0.28599  1.0000
  Ti  Ti51      1.0  0.30904  0.79125  0.34766  1.0000
  Ti  Ti52      1.0  0.85569  0.45917  0.54258  1.0000
  Ti  Ti53      1.0  0.88658  0.78806  0.13473  1.0000
  Ti  Ti54      1.0  0.75839  0.09050  0.55034  1.0000
  Ti  Ti55      1.0  0.57179  0.72660  0.89621  1.0000
  Ti  Ti56      1.0  0.09839  0.02073  0.68275  1.0000
  Ti  Ti57      1.0  0.32930  0.26275  0.75110  1.0000
  Ti  Ti58      1.0  0.37918  0.55267  0.66176  1.0000
  Ti  Ti59      1.0  0.47170  0.25129  0.77142  1.0000
  Ti  Ti60      1.0  0.86846  0.12751  0.92726  1.0000
  Ti  Ti61      1.0  0.75186  0.66498  0.51679  1.0000
  Ti  Ti62      1.0  0.76562  0.79181  0.48225  1.0000
  Ti  Ti63      1.0  0.17384  0.62682  0.02851  1.0000
  Ti  Ti64      1.0  0.20781  0.34036  0.82158  1.0000
  Ti  Ti65      1.0  0.07521  0.75361  0.43912  1.0000
  Ti  Ti66      1.0  0.39312  0.42807  0.83537  1.0000
  Ti  Ti67      1.0  0.94315  0.49236  0.42302  1.0000
  Ti  Ti68      1.0  0.87323  0.97040  0.37061  1.0000
  Ti  Ti69      1.0  0.58617  0.87701  0.38266  1.0000
  Ti  Ti70      1.0  0.92762  0.45921  0.44113  1.0000
  Ti  Ti71      1.0  0.09405  0.00235  0.35064  1.0000
  Ti  Ti72      1.0  0.30845  0.92349  0.90664  1.0000
  Ti  Ti73      1.0  0.69881  0.37686  0.29470  1.0000
  Ti  Ti74      1.0  0.57675  0.47178  0.30566  1.0000
  Ti  Ti75      1.0  0.43022  0.09290  0.95974  1.0000
  Ti  Ti76      1.0  0.31686  0.07853  0.31268  1.0000
  Ti  Ti77      1.0  0.96411  0.86275  0.76375  1.0000
  Ti  Ti78      1.0  0.29002  0.76278  0.13839  1.0000
  Ti  Ti79      1.0  0.67094  0.16245  0.80421  1.0000
  Ti  Ti80      1.0  0.11107  0.32467  0.22480  1.0000
  Ti  Ti81      1.0  0.40413  0.80060  0.85086  1.0000
  Ti  Ti82      1.0  0.86275  0.32742  0.28017  1.0000
  Ti  Ti83      1.0  0.05574  0.57224  0.53939  1.0000
  Ti  Ti84      1.0  0.70276  0.20823  0.27191  1.0000
  Ti  Ti85      1.0  0.98403  0.94380  0.72686  1.0000
  Ti  Ti86      1.0  0.57283  0.38654  0.07532  1.0000
  Ti  Ti87      1.0  0.18005  0.24816  0.42203  1.0000
  Ti  Ti88      1.0  0.84135  0.52428  0.32814  1.0000
  Ti  Ti89      1.0  0.47731  0.40786  0.16390  1.0000
  Ti  Ti90      1.0  0.96746  0.44957  0.11460  1.0000
  Ti  Ti91      1.0  0.20951  0.73197  0.19665  1.0000
  Ti  Ti92      1.0  0.48820  0.80851  0.21800  1.0000
  Ti  Ti93      1.0  0.94890  0.13645  0.31766  1.0000
  Ti  Ti94      1.0  0.12910  0.04523  0.97234  1.0000
  Ti  Ti95      1.0  0.08967  0.49952  0.89309  1.0000
  Ti  Ti96      1.0  0.05329  0.19275  0.69023  1.0000
  I   I1        1.0  0.31117  0.90960  0.98007  1.0000
  I   I2        1.0  0.27273  0.81359  0.32828  1.0000
  I   I3        1.0  0.77533  0.88128  0.38844  1.0000
  I   I4        1.0  0.91982  0.75533  0.15344  1.0000
  I   I5        1.0  0.39689  0.32805  0.40240  1.0000
  I   I6        1.0  0.74946  0.11945  0.60949  1.0000
  I   I7        1.0  0.28174  0.54230  0.68531  1.0000
  I   I8        1.0  0.10199  0.99368  0.73766  1.0000
  I   I9        1.0  0.32258  0.29355  0.79228  1.0000
  I   I10       1.0  0.61903  0.60178  0.21216  1.0000
  I   I11       1.0  0.17346  0.10931  0.08369  1.0000
  I   I12       1.0  0.46717  0.75671  0.56576  1.0000
  I   I13       1.0  0.84707  0.74146  0.47986  1.0000
  I   I14       1.0  0.17797  0.62880  0.95537  1.0000
  I   I15       1.0  0.83224  0.60313  0.59412  1.0000
  I   I16       1.0  0.62186  0.60999  0.08791  1.0000
  I   I17       1.0  0.37779  0.44848  0.77452  1.0000
  I   I18       1.0  0.19766  0.27808  0.81717  1.0000
  I   I19       1.0  0.31813  0.74526  0.59390  1.0000
  I   I20       1.0  0.19553  0.13429  0.17161  1.0000
  I   I21       1.0  0.27618  0.58747  0.65551  1.0000
  I   I22       1.0  0.09673  0.99476  0.48836  1.0000
  I   I23       1.0  0.10130  0.99220  0.28179  1.0000
  I   I24       1.0  0.92527  0.49778  0.49543  1.0000
  I   I25       1.0  0.63768  0.50919  0.27423  1.0000
  I   I26       1.0  0.40557  0.12911  0.92987  1.0000
  I   I27       1.0  0.64544  0.37631  0.22441  1.0000
  I   I28       1.0  0.34527  0.00916  0.38845  1.0000
  I   I29       1.0  0.25156  0.77066  0.11456  1.0000
  I   I30       1.0  0.45751  0.92089  0.35390  1.0000
  I   I31       1.0  0.14528  0.31556  0.18418  1.0000
  I   I32       1.0  0.37590  0.83928  0.82430  1.0000
  I   I33       1.0  0.65625  0.13627  0.80687  1.0000
  I   I34       1.0  0.12872  0.54902  0.60756  1.0000
  I   I35       1.0  0.69916  0.21061  0.18295  1.0000
  I   I36       1.0  0.74808  0.58251  0.33972  1.0000
  I   I37       1.0  0.92216  0.98869  0.78361  1.0000
  I   I38       1.0  0.75437  0.77122  0.94497  1.0000
  I   I39       1.0  0.97046  0.95993  0.85232  1.0000
  I   I40       1.0  0.72553  0.45671  0.02399  1.0000
  I   I41       1.0  0.01249  0.43069  0.08765  1.0000
  I   I42       1.0  0.57394  0.72778  0.63034  1.0000
  I   I43       1.0  0.34688  0.55281  0.69257  1.0000
  I   I44       1.0  0.70481  0.43995  0.11556  1.0000
  I   I45       1.0  0.16224  0.28139  0.45902  1.0000
  I   I46       1.0  0.05473  0.51785  0.94292  1.0000
  I   I47       1.0  0.22269  0.97218  0.87076  1.0000
  I   I48       1.0  0.07732  0.11272  0.07016  1.0000
  I   I49       1.0  0.78125  0.90288  0.27307  1.0000
  I   I50       1.0  0.39323  0.74491  0.28291  1.0000
  I   I51       1.0  0.39358  0.79467  0.33748  1.0000
  I   I52       1.0  0.12692  0.28481  0.22261  1.0000
  I   I53       1.0  0.86969  0.77480  0.08836  1.0000
  I   I54       1.0  0.73914  0.09732  0.48828  1.0000
  I   I55       1.0  0.54843  0.70706  0.93204  1.0000
  I   I56       1.0  0.18007  0.58771  0.55070  1.0000
  I   I57       1.0  0.08548  0.49551  0.81938  1.0000
  I   I58       1.0  0.62867  0.65261  0.17151  1.0000
  I   I59       1.0  0.45639  0.24317  0.70526  1.0000
  I   I60       1.0  0.89311  0.05168  0.88404  1.0000
  I   I61       1.0  0.74353  0.81095  0.53693  1.0000
  I   I62       1.0  0.73077  0.81353  0.45043  1.0000
  I   I63       1.0  0.15267  0.66590  0.05753  1.0000
  I   I64       1.0  0.20674  0.43142  0.42002  1.0000
  I   I65       1.0  0.09568  0.72286  0.40158  1.0000
  I   I66       1.0  0.40899  0.39005  0.81975  1.0000
  I   I67       1.0  0.07643  0.83535  0.23758  1.0000
  I   I68       1.0  0.27993  0.73129  0.52701  1.0000
  I   I69       1.0  0.60877  0.86666  0.44778  1.0000
  I   I70       1.0  0.88976  0.48581  0.43675  1.0000
  I   I71       1.0  0.05330  0.02979  0.35260  1.0000
  I   I72       1.0  0.27347  0.89780  0.91950  1.0000
  I   I73       1.0  0.69826  0.36015  0.21900  1.0000
  I   I74       1.0  0.58517  0.95651  0.92355  1.0000
  I   I75       1.0  0.54862  0.96109  0.81536  1.0000
  I   I76       1.0  0.93773  0.87685  0.82175  1.0000
  I   I77       1.0  0.95006  0.88467  0.70114  1.0000
  I   I78       1.0  0.65670  0.41976  0.90676  1.0000
  I   I79       1.0  0.35060  0.56360  0.88614  1.0000
  I   I80       1.0  0.30133  0.92838  0.44718  1.0000
  I   I81       1.0  0.42173  0.80967  0.77955  1.0000
  I   I82       1.0  0.88810  0.34827  0.26673  1.0000
  I   I83       1.0  0.06098  0.54978  0.47897  1.0000
  I   I84       1.0  0.71469  0.16843  0.24907  1.0000
  I   I85       1.0  0.94593  0.97461  0.69291  1.0000
  I   I86       1.0  0.42024  0.44136  0.85096  1.0000
  I   I87       1.0  0.79153  0.70859  0.89630  1.0000
  I   I88       1.0  0.63669  0.71936  0.62562  1.0000
  I   I89       1.0  0.71013  0.41076  0.04279  1.0000
  I   I90       1.0  0.96202  0.46364  0.17953  1.0000
  I   I91       1.0  0.19426  0.72224  0.13475  1.0000
  I   I92       1.0  0.52367  0.80704  0.19381  1.0000
  I   I93       1.0  0.66901  0.46119  0.99480  1.0000
  I   I94       1.0  0.16506  0.01442  0.96207  1.0000
  I   I95       1.0  0.39961  0.94118  0.03139  1.0000
  I   I96       1.0  0.09144  0.18252  0.71359  1.0000
  I   I97       1.0  0.25931  0.03445  0.05611  1.0000
  I   I98       1.0  0.67135  0.35730  0.89427  1.0000
  I   I99       1.0  0.30883  0.79814  0.41941  1.0000
  I   I100      1.0  0.06010  0.23284  0.79713  1.0000
  I   I101      1.0  0.85235  0.48733  0.35441  1.0000
  I   I102      1.0  0.51589  0.73768  0.50841  1.0000
  I   I103      1.0  0.59076  0.71304  0.97874  1.0000
  I   I104      1.0  0.56343  0.73595  0.82992  1.0000
  I   I105      1.0  0.37764  0.28897  0.80384  1.0000
  I   I106      1.0  0.87274  0.10703  0.84905  1.0000
  I   I107      1.0  0.66994  0.59482  0.14327  1.0000
  I   I108      1.0  0.83609  0.12474  0.95320  1.0000
  I   I109      1.0  0.80200  0.64330  0.48840  1.0000
  I   I110      1.0  0.77300  0.75331  0.51610  1.0000
  I   I111      1.0  0.20770  0.61804  0.05293  1.0000
  I   I112      1.0  0.21505  0.33333  0.74010  1.0000
  I   I113      1.0  0.07349  0.79185  0.44631  1.0000
  I   I114      1.0  0.03493  0.14757  0.17415  1.0000
  I   I115      1.0  0.93163  0.51833  0.36867  1.0000
  I   I116      1.0  0.93518  0.42238  0.42580  1.0000
  I   I117      1.0  0.86042  0.95506  0.31833  1.0000
  I   I118      1.0  0.04551  0.16268  0.43015  1.0000
  I   I119      1.0  0.93196  0.44924  0.52211  1.0000
  I   I120      1.0  0.33426  0.88438  0.89321  1.0000
  I   I121      1.0  0.73418  0.37327  0.27185  1.0000
  I   I122      1.0  0.63117  0.48174  0.19088  1.0000
  I   I123      1.0  0.45715  0.08701  0.90325  1.0000
  I   I124      1.0  0.41576  0.94854  0.27212  1.0000
  I   I125      1.0  0.28355  0.08329  0.35892  1.0000
  I   I126      1.0  0.29451  0.78284  0.07397  1.0000
  I   I127      1.0  0.42181  0.51298  0.91250  1.0000
  I   I128      1.0  0.09831  0.22059  0.94977  1.0000
  I   I129      1.0  0.38298  0.81522  0.91506  1.0000
  I   I130      1.0  0.80820  0.14188  0.14601  1.0000
  I   I131      1.0  0.85423  0.29736  0.28372  1.0000
  I   I132      1.0  0.09781  0.51096  0.58707  1.0000
  I   I133      1.0  0.80494  0.72493  0.00403  1.0000
  I   I134      1.0  0.52999  0.02049  0.40980  1.0000
  I   I135      1.0  0.37081  0.43850  0.89237  1.0000
  I   I136      1.0  0.98549  0.40913  0.12509  1.0000
  I   I137      1.0  0.83182  0.45359  0.59103  1.0000
  I   I138      1.0  0.50645  0.41290  0.19496  1.0000
  I   I139      1.0  0.18416  0.76750  0.22845  1.0000
  I   I140      1.0  0.50134  0.76947  0.20175  1.0000
  I   I141      1.0  0.96461  0.15288  0.36200  1.0000
  I   I142      1.0  0.11528  0.05554  0.05807  1.0000
  I   I143      1.0  0.26874  0.00458  0.96298  1.0000
  I   I144      1.0  0.06640  0.16452  0.64159  1.0000
  I   I145      1.0  0.71206  0.37520  0.91329  1.0000
  I   I146      1.0  0.33038  0.80205  0.28327  1.0000
  I   I147      1.0  0.20560  0.02737  0.03338  1.0000
  I   I148      1.0  0.88761  0.42390  0.52087  1.0000
  I   I149      1.0  0.49474  0.79536  0.56798  1.0000
  I   I150      1.0  0.35148  0.31856  0.46228  1.0000
  I   I151      1.0  0.61395  0.71367  0.87186  1.0000
  I   I152      1.0  0.23006  0.58863  0.56217  1.0000
  I   I153      1.0  0.29456  0.28538  0.71591  1.0000
  I   I154      1.0  0.83187  0.97640  0.59130  1.0000
  I   I155      1.0  0.21000  0.15632  0.09946  1.0000
  I   I156      1.0  0.88625  0.07141  0.98099  1.0000
  I   I157      1.0  0.77368  0.61367  0.59877  1.0000
  I   I158      1.0  0.15990  0.60747  0.07911  1.0000
  I   I159      1.0  0.74202  0.69374  0.46663  1.0000
  I   I160      1.0  0.19914  0.34128  0.89459  1.0000
  I   I161      1.0  0.09718  0.14863  0.15490  1.0000
  I   I162      1.0  0.22686  0.27630  0.72691  1.0000
  I   I163      1.0  0.00611  0.89519  0.19705  1.0000
  I   I164      1.0  0.89743  0.98421  0.34102  1.0000
  I   I165      1.0  0.25375  0.53673  0.61275  1.0000
  I   I166      1.0  0.02270  0.13005  0.48795  1.0000
  I   I167      1.0  0.14459  0.99118  0.50943  1.0000
  I   I168      1.0  0.78538  0.08996  0.16170  1.0000
  I   I169      1.0  0.58283  0.48346  0.22963  1.0000
  I   I170      1.0  0.55185  0.46062  0.28188  1.0000
  I   I171      1.0  0.70578  0.33638  0.32109  1.0000
  I   I172      1.0  0.30589  0.04148  0.46924  1.0000
  I   I173      1.0  0.37016  0.73780  0.13074  1.0000
  I   I174      1.0  0.39388  0.93462  0.35925  1.0000
  I   I175      1.0  0.28795  0.91319  0.55907  1.0000
  I   I176      1.0  0.44276  0.82524  0.85271  1.0000
  I   I177      1.0  0.63847  0.19748  0.80096  1.0000
  I   I178      1.0  0.87786  0.32306  0.21267  1.0000
  I   I179      1.0  0.07628  0.55574  0.60978  1.0000
  I   I180      1.0  0.68279  0.24799  0.27699  1.0000
  I   I181      1.0  0.99846  0.93604  0.66060  1.0000
  I   I182      1.0  0.57203  0.38376  0.99922  1.0000
  I   I183      1.0  0.15655  0.20278  0.35395  1.0000
  I   I184      1.0  0.81232  0.54877  0.37376  1.0000
  I   I185      1.0  0.45008  0.42042  0.21648  1.0000
  I   I186      1.0  0.02597  0.44737  0.98694  1.0000
  I   I187      1.0  0.48238  0.81455  0.29122  1.0000
  I   I188      1.0  0.66972  0.49330  0.07616  1.0000
  I   I189      1.0  0.13565  0.21735  0.46015  1.0000
  I   I190      1.0  0.43929  0.97045  0.07068  1.0000
  I   I191      1.0  0.01331  0.30857  0.35355  1.0000
  I   I192      1.0  0.12548  0.03892  0.90216  1.0000
  I   I193      1.0  0.36491  0.74328  0.02466  1.0000
  I   I194      1.0  0.97242  0.30731  0.25886  1.0000
  I   I195      1.0  0.25630  0.97746  0.06206  1.0000
  I   I196      1.0  0.12916  0.26516  0.92383  1.0000
  I   I197      1.0  0.38319  0.52827  0.60654  1.0000
  I   I198      1.0  0.34300  0.32884  0.34760  1.0000
  I   I199      1.0  0.57161  0.76255  0.91540  1.0000
  I   I200      1.0  0.13294  0.02069  0.67519  1.0000
  I   I201      1.0  0.34680  0.31824  0.72693  1.0000
  I   I202      1.0  0.50125  0.24489  0.72802  1.0000
  I   I203      1.0  0.57433  0.91439  0.40888  1.0000
  I   I204      1.0  0.90905  0.10386  0.91901  1.0000
  I   I205      1.0  0.80413  0.77918  0.52378  1.0000
  I   I206      1.0  0.03679  0.26544  0.89765  1.0000
  I   I207      1.0  0.79814  0.59660  0.50880  1.0000
  I   I208      1.0  0.26269  0.42788  0.41982  1.0000
  I   I209      1.0  0.09793  0.10885  0.21332  1.0000
  I   I210      1.0  0.68665  0.15125  0.73867  1.0000
  I   I211      1.0  0.97446  0.49480  0.44424  1.0000
  I   I212      1.0  0.25882  0.78281  0.59379  1.0000
  I   I213      1.0  0.56176  0.86116  0.40053  1.0000
  I   I214      1.0  0.00968  0.19627  0.51013  1.0000
  I   I215      1.0  0.16078  0.94634  0.42388  1.0000
  I   I216      1.0  0.78547  0.13080  0.06139  1.0000
  I   I217      1.0  0.58345  0.54153  0.22563  1.0000
  I   I218      1.0  0.42181  0.06085  0.95674  1.0000
  I   I219      1.0  0.68698  0.31282  0.22352  1.0000
  I   I220      1.0  0.96582  0.82810  0.73073  1.0000
  I   I221      1.0  0.32407  0.73365  0.10489  1.0000
  I   I222      1.0  0.33297  0.06464  0.39174  1.0000
  I   I223      1.0  0.24015  0.93028  0.49015  1.0000
  I   I224      1.0  0.38829  0.87270  0.87107  1.0000
  I   I225      1.0  0.38648  0.49732  0.86140  1.0000
  I   I226      1.0  0.89782  0.31972  0.32660  1.0000
  I   I227      1.0  0.14207  0.52175  0.51132  1.0000
  I   I228      1.0  0.73319  0.22004  0.28440  1.0000
  I   I229      1.0  0.06440  0.17120  0.25563  1.0000
  I   I230      1.0  0.59383  0.99937  0.48449  1.0000
  I   I231      1.0  0.82758  0.73440  0.91935  1.0000
  I   I232      1.0  0.05705  0.20721  0.90142  1.0000
  I   I233      1.0  0.76968  0.38891  0.04715  1.0000
  I   I234      1.0  0.01365  0.48801  0.03727  1.0000
  I   I235      1.0  0.80415  0.94629  0.61034  1.0000
  I   I236      1.0  0.91036  0.15879  0.32911  1.0000
  I   I237      1.0  0.24549  0.72758  0.17835  1.0000
  I   I238      1.0  0.09256  0.53318  0.86356  1.0000
  I   I239      1.0  0.01659  0.20277  0.72150  1.0000
  I   I240      1.0  0.03886  0.09365  0.06825  1.0000
  I   I241      1.0  0.67848  0.39717  0.79835  1.0000
  I   I242      1.0  0.37595  0.80916  0.24205  1.0000
  I   I243      1.0  0.39724  0.98801  0.98969  1.0000
  I   I244      1.0  0.83221  0.53000  0.25701  1.0000
  I   I245      1.0  0.86591  0.79539  0.19991  1.0000
  I   I246      1.0  0.40237  0.26758  0.39470  1.0000
  I   I247      1.0  0.50974  0.73935  0.01345  1.0000
  I   I248      1.0  0.22246  0.58967  0.66591  1.0000
  I   I249      1.0  0.34747  0.26489  0.68520  1.0000
  I   I250      1.0  0.44819  0.29091  0.77082  1.0000
  I   I251      1.0  0.23012  0.09718  0.05727  1.0000
  I   I252      1.0  0.84261  0.07669  0.91287  1.0000
  I   I253      1.0  0.84302  0.79254  0.46044  1.0000
  I   I254      1.0  0.11091  0.20808  0.86216  1.0000
  I   I255      1.0  0.76967  0.67211  0.57382  1.0000
  I   I256      1.0  0.08928  0.74524  0.50597  1.0000
  I   I257      1.0  0.01459  0.91903  0.77293  1.0000
  I   I258      1.0  0.22979  0.36045  0.82694  1.0000
  I   I259      1.0  0.96888  0.45167  0.45545  1.0000
  I   I260      1.0  0.87921  0.94964  0.43594  1.0000
  I   I261      1.0  0.21579  0.53444  0.53258  1.0000
  I   I262      1.0  0.98548  0.17769  0.42242  1.0000
  I   I263      1.0  0.12837  0.00560  0.38620  1.0000
  I   I264      1.0  0.75190  0.15096  0.14257  1.0000
  I   I265      1.0  0.57776  0.50939  0.31128  1.0000
  I   I266      1.0  0.60759  0.91178  0.83600  1.0000
  I   I267      1.0  0.67643  0.41227  0.26730  1.0000
  I   I268      1.0  0.27491  0.04223  0.39439  1.0000
  I   I269      1.0  0.30356  0.73314  0.19539  1.0000
  I   I270      1.0  0.32230  0.10893  0.31756  1.0000
  I   I271      1.0  0.31178  0.87742  0.46336  1.0000
  I   I272      1.0  0.43122  0.76481  0.88344  1.0000
  I   I273      1.0  0.39140  0.55203  0.82414  1.0000
  I   I274      1.0  0.75269  0.54120  0.41246  1.0000
  I   I275      1.0  0.09409  0.57111  0.50718  1.0000
  I   I276      1.0  0.68989  0.20273  0.33660  1.0000
  I   I277      1.0  0.83551  0.36429  0.29703  1.0000
  I   I278      1.0  0.57058  0.03948  0.39114  1.0000
  I   I279      1.0  0.17933  0.17123  0.42901  1.0000
  I   I280      1.0  0.83735  0.47870  0.48243  1.0000
  I   I281      1.0  0.77375  0.41879  0.12654  1.0000
  I   I282      1.0  0.95782  0.48909  0.07563  1.0000
  I   I283      1.0  0.86139  0.91362  0.56377  1.0000
  I   I284      1.0  0.96006  0.14440  0.25436  1.0000
  I   I285      1.0  0.20183  0.20688  0.38268  1.0000
  I   I286      1.0  0.08167  0.46651  0.90085  1.0000
  I   I287      1.0  0.27264  0.95461  0.92986  1.0000
  I   I288      1.0  0.06092  0.11354  0.97973  1.0000
  I   I289      1.0  0.72774  0.92480  0.31986  1.0000
  I   I290      1.0  0.02367  0.31663  0.24670  1.0000
  I   I291      1.0  0.31580  0.75389  0.33192  1.0000
  I   I292      1.0  0.87233  0.48475  0.56406  1.0000
  I   I293      1.0  0.89282  0.81906  0.11947  1.0000
  I   I294      1.0  0.73729  0.07819  0.59381  1.0000
  I   I295      1.0  0.54894  0.73627  0.06495  1.0000
  I   I296      1.0  0.09095  0.00773  0.62048  1.0000
  I   I297      1.0  0.36889  0.24278  0.80076  1.0000
  I   I298      1.0  0.41196  0.54768  0.69924  1.0000
  I   I299      1.0  0.24924  0.38692  0.49111  1.0000
  I   I300      1.0  0.94999  0.10075  0.32203  1.0000
  I   I301      1.0  0.74298  0.64159  0.46447  1.0000
  I   I302      1.0  0.78894  0.76758  0.42606  1.0000
  I   I303      1.0  0.59415  0.75539  0.53916  1.0000
  I   I304      1.0  0.16958  0.35347  0.80018  1.0000
  I   I305      1.0  0.25438  0.37754  0.36599  1.0000
  I   I306      1.0  0.54803  0.42472  0.08348  1.0000
  I   I307      1.0  0.01895  0.84295  0.26396  1.0000
  I   I308      1.0  0.27910  0.72031  0.63814  1.0000
  I   I309      1.0  0.19780  0.54688  0.63692  1.0000
  I   I310      1.0  0.85656  0.91667  0.67117  1.0000
  I   I311      1.0  0.10954  0.96487  0.38562  1.0000
  I   I312      1.0  0.32773  0.94467  0.90552  1.0000
  I   I313      1.0  0.69171  0.39519  0.35898  1.0000
  I   I314      1.0  0.61820  0.44674  0.30549  1.0000
  I   I315      1.0  0.44308  0.11049  0.00880  1.0000
  I   I316      1.0  0.29865  0.08963  0.24751  1.0000
  I   I317      1.0  0.35542  0.05254  0.28664  1.0000
  I   I318      1.0  0.28840  0.79718  0.17691  1.0000
  I   I319      1.0  0.71059  0.14851  0.83322  1.0000
  I   I320      1.0  0.15791  0.20383  0.93314  1.0000
  I   I321      1.0  0.41510  0.87996  0.78702  1.0000
  I   I322      1.0  0.71999  0.55072  0.31699  1.0000
  I   I323      1.0  0.02210  0.57849  0.57182  1.0000
  I   I324      1.0  0.75123  0.20457  0.17950  1.0000
  I   I325      1.0  0.99656  0.97465  0.72719  1.0000
  I   I326      1.0  0.56014  0.36247  0.10292  1.0000
  I   I327      1.0  0.17096  0.26791  0.35488  1.0000
  I   I328      1.0  0.58176  0.77492  0.65407  1.0000
  I   I329      1.0  0.48368  0.36895  0.14430  1.0000
  I   I330      1.0  0.93020  0.45822  0.11413  1.0000
  I   I331      1.0  0.22136  0.23805  0.41152  1.0000
  I   I332      1.0  0.36764  0.59136  0.65239  1.0000
  I   I333      1.0  0.74861  0.37823  0.13017  1.0000
  I   I334      1.0  0.09327  0.04680  0.98894  1.0000
  I   I335      1.0  0.37592  0.99318  0.10193  1.0000
  I   I336      1.0  0.03775  0.22466  0.64849  1.0000
  I   I337      1.0  0.75175  0.86398  0.29179  1.0000
  I   I338      1.0  0.03990  0.25780  0.28994  1.0000
  I   I339      1.0  0.35496  0.78015  0.37079  1.0000
  I   I340      1.0  0.11405  0.33953  0.28950  1.0000
  I   I341      1.0  0.47308  0.79414  0.46370  1.0000
  I   I342      1.0  0.78935  0.05393  0.53708  1.0000
  I   I343      1.0  0.52835  0.76441  0.93901  1.0000
  I   I344      1.0  0.06790  0.05421  0.71873  1.0000
  I   I345      1.0  0.32227  0.23484  0.79539  1.0000
  I   I346      1.0  0.93832  0.46962  0.36816  1.0000
  I   I347      1.0  0.49118  0.23684  0.83389  1.0000
  I   I348      1.0  0.85130  0.16194  0.89439  1.0000
  I   I349      1.0  0.71718  0.66855  0.55125  1.0000
  I   I350      1.0  0.77876  0.82640  0.45277  1.0000
  I   I351      1.0  0.08867  0.25972  0.86102  1.0000
  I   I352      1.0  0.24260  0.30100  0.82135  1.0000
  I   I353      1.0  0.03593  0.76384  0.44474  1.0000
  I   I354      1.0  0.60666  0.38063  0.11882  1.0000
  I   I355      1.0  0.03091  0.88543  0.29493  1.0000
  I   I356      1.0  0.84946  0.00762  0.38772  1.0000
  I   I357      1.0  0.60264  0.97244  0.84015  1.0000
  I   I358      1.0  0.82906  0.07919  0.10233  1.0000
  I   I359      1.0  0.09869  0.03368  0.29966  1.0000
  I   I360      1.0  0.28857  0.92774  0.84251  1.0000
  I   I361      1.0  0.65798  0.33127  0.30811  1.0000
  I   I362      1.0  0.56230  0.47048  0.37480  1.0000
  I   I363      1.0  0.60550  0.85924  0.32304  1.0000
  I   I364      1.0  0.41105  0.98603  0.37285  1.0000
  I   I365      1.0  0.99474  0.86974  0.78466  1.0000
  I   I366      1.0  0.34874  0.79250  0.08049  1.0000
  I   I367      1.0  0.66991  0.15516  0.88522  1.0000
  I   I368      1.0  0.08130  0.33558  0.17317  1.0000
  I   I369      1.0  0.37883  0.78606  0.84817  1.0000
  I   I370      1.0  0.69377  0.60119  0.40262  1.0000
  I   I371      1.0  0.03422  0.60826  0.50353  1.0000
  I   I372      1.0  0.77176  0.15978  0.25246  1.0000
  I   I373      1.0  0.96519  0.92990  0.78978  1.0000
  I   I374      1.0  0.58697  0.97980  0.36883  1.0000
  I   I375      1.0  0.19035  0.22056  0.48039  1.0000
  I   I376      1.0  0.87713  0.52684  0.32127  1.0000
  I   I377      1.0  0.45941  0.43913  0.11203  1.0000
  I   I378      1.0  0.97549  0.45967  0.98252  1.0000
  I   I379      1.0  0.20790  0.70400  0.23579  1.0000
  I   I380      1.0  0.45884  0.83387  0.17828  1.0000
  I   I381      1.0  0.87941  0.14000  0.98533  1.0000
  I   I382      1.0  0.13308  0.07872  0.96473  1.0000
  I   I383      1.0  0.11360  0.49155  0.94899  1.0000
  I   I384      1.0  0.21989  0.92693  0.88258  1.0000
