data_image0
_chemical_formula_structural       Ti96I384
_chemical_formula_sum              "Ti96 I384"
_cell_length_a       65.5193
_cell_length_b       65.1524
_cell_length_c       31.8727
_cell_angle_alpha    88.7757
_cell_angle_beta     88.7757
_cell_angle_gamma    62.1586

_space_group_name_H-M_alt    "P 1"
_space_group_IT_number       1

loop_
  _space_group_symop_operation_xyz
  'x, y, z'

loop_
  _atom_site_type_symbol
  _atom_site_label
  _atom_site_symmetry_multiplicity
  _atom_site_fract_x
  _atom_site_fract_y
  _atom_site_fract_z
  _atom_site_occupancy
  Ti  Ti1       1.0  0.57872  0.83199  0.61227  1.0000
  Ti  Ti2       1.0  0.40671  0.10958  0.32015  1.0000
  Ti  Ti3       1.0  0.92844  0.70276  0.28327  1.0000
  Ti  Ti4       1.0  0.03642  0.00267  0.97422  1.0000
  Ti  Ti5       1.0  0.91116  0.79724  0.68106  1.0000
  Ti  Ti6       1.0  0.44910  0.24535  0.78469  1.0000
  Ti  Ti7       1.0  0.83426  0.04961  0.21316  1.0000
  Ti  Ti8       1.0  0.48233  0.19717  0.18833  1.0000
  Ti  Ti9       1.0  0.29683  0.78866  0.65211  1.0000
  Ti  Ti10      1.0  0.68608  0.91722  0.30054  1.0000
  Ti  Ti11      1.0  0.06006  0.51513  0.68810  1.0000
  Ti  Ti12      1.0  0.11667  0.59466  0.39844  1.0000
  Ti  Ti13      1.0  0.21011  0.19964  0.59767  1.0000
  Ti  Ti14      1.0  0.09147  0.07875  0.38386  1.0000
  Ti  Ti15      1.0  0.60540  0.23760  0.73467  1.0000
  Ti  Ti16      1.0  0.65421  0.87058  0.77683  1.0000
  Ti  Ti17      1.0  0.33145  0.12611  0.59590  1.0000
  Ti  Ti18      1.0  0.09609  0.63084  0.03595  1.0000
  Ti  Ti19      1.0  0.50136  0.83402  0.33568  1.0000
  Ti  Ti20      1.0  0.43364  0.97965  0.67134  1.0000
  Ti  Ti21      1.0  0.19367  0.01758  0.93042  1.0000
  Ti  Ti22      1.0  0.65485  0.39772  0.52355  1.0000
  Ti  Ti23      1.0  0.56840  0.07645  0.46345  1.0000
  Ti  Ti24      1.0  0.98511  0.94052  0.37906  1.0000
  Ti  Ti25      1.0  0.67431  0.75301  0.05161  1.0000
  Ti  Ti26      1.0  0.48555  0.89868  0.03878  1.0000
  Ti  Ti27      1.0  0.01219  0.78163  0.34124  1.0000
  Ti  Ti28      1.0  0.64268  0.33991  0.06322  1.0000
  Ti  Ti29      1.0  0.80913  0.96231  0.51630  1.0000
  Ti  Ti30      1.0  0.83024  0.25850  0.36655  1.0000
  Ti  Ti31      1.0  0.76937  0.25405  0.70427  1.0000
  Ti  Ti32      1.0  0.71041  0.23362  0.22285  1.0000
  Ti  Ti33      1.0  0.37151  0.87471  0.89856  1.0000
  Ti  Ti34      1.0  0.55153  0.48055  0.96128  1.0000
  Ti  Ti35      1.0  0.76976  0.51106  0.49622  1.0000
  Ti  Ti36      1.0  0.85803  0.57973  0.41963  1.0000
  Ti  Ti37      1.0  0.00100  0.38510  0.33672  1.0000
  Ti  Ti38      1.0  0.52962  0.31496  0.98405  1.0000
  Ti  Ti39      1.0  0.00503  0.89429  0.69934  1.0000
  Ti  Ti40      1.0  0.13348  0.09075  0.26889  1.0000
  Ti  Ti41      1.0  0.54685  0.65575  0.02821  1.0000
  Ti  Ti42      1.0  0.91243  0.29752  0.11361  1.0000
  Ti  Ti43      1.0  0.65804  0.14600  0.43048  1.0000
  Ti  Ti44      1.0  0.81740  0.54846  0.08849  1.0000
  Ti  Ti45      1.0  0.39064  0.60373  0.66982  1.0000
  Ti  Ti46      1.0  0.29910  0.46241  0.30818  1.0000
  Ti  Ti47      1.0  0.11376  0.51649  0.07640  1.0000
  Ti  Ti48      1.0  0.47699  0.70149  0.57159  1.0000
  Ti  Ti49      1.0  0.58630  0.80215  0.73320  1.0000
  Ti  Ti50      1.0  0.01812  0.19926  0.18192  1.0000
  Ti  Ti51      1.0  0.43860  0.08296  0.23688  1.0000
  Ti  Ti52      1.0  0.08897  0.98834  0.91607  1.0000
  Ti  Ti53      1.0  0.21779  0.59331  0.57168  1.0000
  Ti  Ti54      1.0  0.51662  0.18460  0.80111  1.0000
  Ti  Ti55      1.0  0.84484  0.01643  0.12421  1.0000
  Ti  Ti56      1.0  0.42764  0.22407  0.22000  1.0000
  Ti  Ti57      1.0  0.33355  0.74506  0.54656  1.0000
  Ti  Ti58      1.0  0.68650  0.18267  0.54122  1.0000
  Ti  Ti59      1.0  0.58263  0.99112  0.94778  1.0000
  Ti  Ti60      1.0  0.07988  0.64507  0.45972  1.0000
  Ti  Ti61      1.0  0.62884  0.28054  0.79583  1.0000
  Ti  Ti62      1.0  0.20866  0.15730  0.51287  1.0000
  Ti  Ti63      1.0  0.12611  0.01563  0.44227  1.0000
  Ti  Ti64      1.0  0.13473  0.67014  0.01128  1.0000
  Ti  Ti65      1.0  0.12257  0.33143  0.74517  1.0000
  Ti  Ti66      1.0  0.46921  0.32626  0.22332  1.0000
  Ti  Ti67      1.0  0.55424  0.77378  0.34431  1.0000
  Ti  Ti68      1.0  0.08835  0.33038  0.01091  1.0000
  Ti  Ti69      1.0  0.16899  0.08652  0.95950  1.0000
  Ti  Ti70      1.0  0.61110  0.45249  0.46797  1.0000
  Ti  Ti71      1.0  0.57944  0.08393  0.57837  1.0000
  Ti  Ti72      1.0  0.17136  0.94143  0.21488  1.0000
  Ti  Ti73      1.0  0.00986  0.84422  0.28166  1.0000
  Ti  Ti74      1.0  0.65091  0.80104  0.00267  1.0000
  Ti  Ti75      1.0  0.44292  0.94420  0.98528  1.0000
  Ti  Ti76      1.0  0.76622  0.29471  0.40133  1.0000
  Ti  Ti77      1.0  0.69116  0.37003  0.04501  1.0000
  Ti  Ti78      1.0  0.84055  0.99774  0.46646  1.0000
  Ti  Ti79      1.0  0.50203  0.41848  0.72669  1.0000
  Ti  Ti80      1.0  0.80606  0.14056  0.60235  1.0000
  Ti  Ti81      1.0  0.65231  0.29707  0.28331  1.0000
  Ti  Ti82      1.0  0.54396  0.52637  0.90642  1.0000
  Ti  Ti83      1.0  0.73796  0.55464  0.57558  1.0000
  Ti  Ti84      1.0  0.84908  0.57490  0.32485  1.0000
  Ti  Ti85      1.0  0.95611  0.40327  0.22215  1.0000
  Ti  Ti86      1.0  0.50430  0.32055  0.10237  1.0000
  Ti  Ti87      1.0  0.94170  0.90928  0.65522  1.0000
  Ti  Ti88      1.0  0.56520  0.91870  0.22983  1.0000
  Ti  Ti89      1.0  0.61221  0.65215  0.05797  1.0000
  Ti  Ti90      1.0  0.91174  0.27879  0.00913  1.0000
  Ti  Ti91      1.0  0.37744  0.64430  0.72689  1.0000
  Ti  Ti92      1.0  0.77336  0.07137  0.75669  1.0000
  Ti  Ti93      1.0  0.78261  0.59442  0.05497  1.0000
  Ti  Ti94      1.0  0.54255  0.65947  0.52338  1.0000
  Ti  Ti95      1.0  0.32569  0.50488  0.26896  1.0000
  Ti  Ti96      1.0  0.05129  0.53009  0.00609  1.0000
  I   I1        1.0  0.01484  0.56988  0.00570  1.0000
  I   I2        1.0  0.42726  0.13171  0.28234  1.0000
  I   I3        1.0  0.61964  0.76095  0.76716  1.0000
  I   I4        1.0  0.19275  0.57586  0.60204  1.0000
  I   I5        1.0  0.47238  0.20754  0.84562  1.0000
  I   I6        1.0  0.54460  0.15477  0.85152  1.0000
  I   I7        1.0  0.50232  0.18763  0.11530  1.0000
  I   I8        1.0  0.43836  0.22247  0.29421  1.0000
  I   I9        1.0  0.28981  0.79829  0.73075  1.0000
  I   I10       1.0  0.70045  0.87347  0.31888  1.0000
  I   I11       1.0  0.05056  0.48357  0.65758  1.0000
  I   I12       1.0  0.88960  0.82445  0.74212  1.0000
  I   I13       1.0  0.19519  0.17245  0.43590  1.0000
  I   I14       1.0  0.09946  0.00527  0.48266  1.0000
  I   I15       1.0  0.64031  0.19863  0.71663  1.0000
  I   I16       1.0  0.68115  0.82500  0.79698  1.0000
  I   I17       1.0  0.48691  0.31462  0.29781  1.0000
  I   I18       1.0  0.13167  0.64187  0.07781  1.0000
  I   I19       1.0  0.46470  0.98963  0.65413  1.0000
  I   I20       1.0  0.09823  0.50438  0.64774  1.0000
  I   I21       1.0  0.18458  0.00985  0.85142  1.0000
  I   I22       1.0  0.53462  0.09092  0.57001  1.0000
  I   I23       1.0  0.55760  0.09752  0.39292  1.0000
  I   I24       1.0  0.58349  0.46945  0.40541  1.0000
  I   I25       1.0  0.66731  0.83207  0.03019  1.0000
  I   I26       1.0  0.44484  0.92038  0.07907  1.0000
  I   I27       1.0  0.04050  0.76786  0.27987  1.0000
  I   I28       1.0  0.68603  0.40789  0.00223  1.0000
  I   I29       1.0  0.85284  0.01825  0.51740  1.0000
  I   I30       1.0  0.75043  0.29929  0.32377  1.0000
  I   I31       1.0  0.78570  0.11314  0.60416  1.0000
  I   I32       1.0  0.65108  0.33793  0.27744  1.0000
  I   I33       1.0  0.53514  0.37969  0.71885  1.0000
  I   I34       1.0  0.76764  0.56502  0.61288  1.0000
  I   I35       1.0  0.83800  0.55262  0.43129  1.0000
  I   I36       1.0  0.50984  0.49296  0.99651  1.0000
  I   I37       1.0  0.91476  0.40639  0.24762  1.0000
  I   I38       1.0  0.96544  0.89645  0.73486  1.0000
  I   I39       1.0  0.00259  0.37051  0.25126  1.0000
  I   I40       1.0  0.61323  0.69001  0.09211  1.0000
  I   I41       1.0  0.88382  0.26356  0.97752  1.0000
  I   I42       1.0  0.16876  0.05138  0.26973  1.0000
  I   I43       1.0  0.64267  0.21123  0.56023  1.0000
  I   I44       1.0  0.78775  0.56548  0.98709  1.0000
  I   I45       1.0  0.39151  0.67390  0.70151  1.0000
  I   I46       1.0  0.34729  0.45263  0.25946  1.0000
  I   I47       1.0  0.12937  0.52408  0.15139  1.0000
  I   I48       1.0  0.53833  0.62419  0.48721  1.0000
  I   I49       1.0  0.55903  0.81608  0.80109  1.0000
  I   I50       1.0  0.36801  0.15207  0.34059  1.0000
  I   I51       1.0  0.39325  0.09579  0.25027  1.0000
  I   I52       1.0  0.00195  0.99585  0.94166  1.0000
  I   I53       1.0  0.23007  0.60959  0.63460  1.0000
  I   I54       1.0  0.54330  0.17678  0.73795  1.0000
  I   I55       1.0  0.82736  0.06201  0.12219  1.0000
  I   I56       1.0  0.44784  0.24002  0.16323  1.0000
  I   I57       1.0  0.33024  0.71787  0.49019  1.0000
  I   I58       1.0  0.72500  0.91143  0.26702  1.0000
  I   I59       1.0  0.56447  0.97245  0.99784  1.0000
  I   I60       1.0  0.14094  0.56250  0.46457  1.0000
  I   I61       1.0  0.23671  0.11722  0.48666  1.0000
  I   I62       1.0  0.22741  0.18943  0.51299  1.0000
  I   I63       1.0  0.13971  0.03654  0.37084  1.0000
  I   I64       1.0  0.61222  0.87444  0.76700  1.0000
  I   I65       1.0  0.11385  0.33636  0.66326  1.0000
  I   I66       1.0  0.44428  0.30516  0.21091  1.0000
  I   I67       1.0  0.47115  0.82281  0.29834  1.0000
  I   I68       1.0  0.43822  0.96595  0.75472  1.0000
  I   I69       1.0  0.12819  0.12110  0.96044  1.0000
  I   I70       1.0  0.64351  0.36263  0.52913  1.0000
  I   I71       1.0  0.57409  0.11312  0.49569  1.0000
  I   I72       1.0  0.15482  0.97708  0.25906  1.0000
  I   I73       1.0  0.05178  0.83390  0.26116  1.0000
  I   I74       1.0  0.44837  0.90235  0.97195  1.0000
  I   I75       1.0  0.43538  0.95161  0.90731  1.0000
  I   I76       1.0  0.60329  0.35119  0.03378  1.0000
  I   I77       1.0  0.73217  0.34600  0.00533  1.0000
  I   I78       1.0  0.87154  0.97943  0.39810  1.0000
  I   I79       1.0  0.40726  0.87889  0.89007  1.0000
  I   I80       1.0  0.75729  0.28740  0.75981  1.0000
  I   I81       1.0  0.69245  0.28424  0.22683  1.0000
  I   I82       1.0  0.51432  0.54500  0.96871  1.0000
  I   I83       1.0  0.76337  0.55692  0.50214  1.0000
  I   I84       1.0  0.89250  0.55715  0.48123  1.0000
  I   I85       1.0  0.95812  0.42440  0.29103  1.0000
  I   I86       1.0  0.55324  0.30045  0.06441  1.0000
  I   I87       1.0  0.01812  0.90130  0.77486  1.0000
  I   I88       1.0  0.10309  0.11108  0.20836  1.0000
  I   I89       1.0  0.59102  0.62542  0.04938  1.0000
  I   I90       1.0  0.93430  0.27500  0.93916  1.0000
  I   I91       1.0  0.35424  0.65865  0.79613  1.0000
  I   I92       1.0  0.78088  0.05178  0.68418  1.0000
  I   I93       1.0  0.84545  0.53973  0.02912  1.0000
  I   I94       1.0  0.46496  0.69622  0.64789  1.0000
  I   I95       1.0  0.28773  0.54743  0.27399  1.0000
  I   I96       1.0  0.06977  0.51052  0.93518  1.0000
  I   I97       1.0  0.92715  0.67095  0.24650  1.0000
  I   I98       1.0  0.57080  0.84765  0.71388  1.0000
  I   I99       1.0  0.38808  0.10548  0.39208  1.0000
  I   I100      1.0  0.03960  0.97830  0.04563  1.0000
  I   I101      1.0  0.09577  0.95435  0.97372  1.0000
  I   I102      1.0  0.92473  0.75279  0.69851  1.0000
  I   I103      1.0  0.80541  0.02308  0.15794  1.0000
  I   I104      1.0  0.84420  0.07960  0.23733  1.0000
  I   I105      1.0  0.33968  0.75893  0.63112  1.0000
  I   I106      1.0  0.07054  0.68761  0.48340  1.0000
  I   I107      1.0  0.65823  0.92550  0.23444  1.0000
  I   I108      1.0  0.12706  0.62574  0.45944  1.0000
  I   I109      1.0  0.66969  0.24705  0.80641  1.0000
  I   I110      1.0  0.16894  0.20911  0.58305  1.0000
  I   I111      1.0  0.08368  0.04152  0.37162  1.0000
  I   I112      1.0  0.06308  0.62708  0.00400  1.0000
  I   I113      1.0  0.10571  0.36429  0.79748  1.0000
  I   I114      1.0  0.35520  0.13189  0.52974  1.0000
  I   I115      1.0  0.54969  0.82547  0.34488  1.0000
  I   I116      1.0  0.52829  0.79278  0.26967  1.0000
  I   I117      1.0  0.04695  0.34601  0.04826  1.0000
  I   I118      1.0  0.57701  0.47340  0.52105  1.0000
  I   I119      1.0  0.64288  0.46453  0.43641  1.0000
  I   I120      1.0  0.17787  0.90765  0.26887  1.0000
  I   I121      1.0  0.98726  0.81619  0.29068  1.0000
  I   I122      1.0  0.64492  0.74043  0.07702  1.0000
  I   I123      1.0  0.51362  0.88969  0.09722  1.0000
  I   I124      1.0  0.73853  0.32532  0.45211  1.0000
  I   I125      1.0  0.66087  0.30112  0.02196  1.0000
  I   I126      1.0  0.79826  0.01492  0.51521  1.0000
  I   I127      1.0  0.35155  0.86818  0.82781  1.0000
  I   I128      1.0  0.79950  0.17833  0.55404  1.0000
  I   I129      1.0  0.65502  0.29505  0.36583  1.0000
  I   I130      1.0  0.83590  0.60142  0.25867  1.0000
  I   I131      1.0  0.57800  0.48248  0.88125  1.0000
  I   I132      1.0  0.70517  0.59624  0.55450  1.0000
  I   I133      1.0  0.02522  0.85007  0.70133  1.0000
  I   I134      1.0  0.49160  0.32357  0.93459  1.0000
  I   I135      1.0  0.49366  0.34936  0.03962  1.0000
  I   I136      1.0  0.92861  0.27366  0.18473  1.0000
  I   I137      1.0  0.54498  0.89461  0.20990  1.0000
  I   I138      1.0  0.56195  0.68757  0.06468  1.0000
  I   I139      1.0  0.38569  0.59571  0.58745  1.0000
  I   I140      1.0  0.72955  0.09994  0.74771  1.0000
  I   I141      1.0  0.81332  0.61213  0.04539  1.0000
  I   I142      1.0  0.52725  0.68305  0.60047  1.0000
  I   I143      1.0  0.27971  0.45822  0.24236  1.0000
  I   I144      1.0  0.06586  0.52907  0.09308  1.0000
  I   I145      1.0  0.59226  0.81173  0.53960  1.0000
  I   I146      1.0  0.44417  0.06967  0.34129  1.0000
  I   I147      1.0  0.93288  0.73300  0.23965  1.0000
  I   I148      1.0  0.12888  0.98487  0.91045  1.0000
  I   I149      1.0  0.93725  0.81731  0.65218  1.0000
  I   I150      1.0  0.50306  0.23478  0.77987  1.0000
  I   I151      1.0  0.85182  0.97014  0.13623  1.0000
  I   I152      1.0  0.44481  0.19156  0.14676  1.0000
  I   I153      1.0  0.33151  0.77667  0.48870  1.0000
  I   I154      1.0  0.72171  0.18329  0.50223  1.0000
  I   I155      1.0  0.02304  0.55423  0.68266  1.0000
  I   I156      1.0  0.08320  0.59981  0.45598  1.0000
  I   I157      1.0  0.58597  0.25105  0.65966  1.0000
  I   I158      1.0  0.15387  0.01985  0.49151  1.0000
  I   I159      1.0  0.62804  0.28584  0.87545  1.0000
  I   I160      1.0  0.06856  0.67801  0.03170  1.0000
  I   I161      1.0  0.35571  0.10098  0.65564  1.0000
  I   I162      1.0  0.11122  0.70794  0.05330  1.0000
  I   I163      1.0  0.58122  0.77055  0.40353  1.0000
  I   I164      1.0  0.09336  0.30077  0.95427  1.0000
  I   I165      1.0  0.20006  0.04664  0.00227  1.0000
  I   I166      1.0  0.63925  0.43826  0.55621  1.0000
  I   I167      1.0  0.61013  0.04640  0.45062  1.0000
  I   I168      1.0  0.03163  0.91549  0.37115  1.0000
  I   I169      1.0  0.61349  0.80424  0.03994  1.0000
  I   I170      1.0  0.70598  0.71371  0.08229  1.0000
  I   I171      1.0  0.03768  0.75634  0.40727  1.0000
  I   I172      1.0  0.74924  0.26625  0.42853  1.0000
  I   I173      1.0  0.86151  0.95355  0.50179  1.0000
  I   I174      1.0  0.87378  0.25302  0.37717  1.0000
  I   I175      1.0  0.80707  0.22707  0.67353  1.0000
  I   I176      1.0  0.69895  0.24758  0.14094  1.0000
  I   I177      1.0  0.52511  0.44051  0.72866  1.0000
  I   I178      1.0  0.52368  0.55534  0.84654  1.0000
  I   I179      1.0  0.72461  0.52113  0.49134  1.0000
  I   I180      1.0  0.81619  0.56398  0.28228  1.0000
  I   I181      1.0  0.95228  0.43389  0.16318  1.0000
  I   I182      1.0  0.51944  0.34505  0.14257  1.0000
  I   I183      1.0  0.90346  0.90558  0.66304  1.0000
  I   I184      1.0  0.53993  0.96039  0.24937  1.0000
  I   I185      1.0  0.53104  0.65258  0.10520  1.0000
  I   I186      1.0  0.87658  0.29052  0.08563  1.0000
  I   I187      1.0  0.79999  0.04596  0.81881  1.0000
  I   I188      1.0  0.83977  0.54133  0.15870  1.0000
  I   I189      1.0  0.35987  0.65429  0.64825  1.0000
  I   I190      1.0  0.36072  0.49874  0.31354  1.0000
  I   I191      1.0  0.02515  0.16765  0.24216  1.0000
  I   I192      1.0  0.45223  0.69107  0.52566  1.0000
  I   I193      1.0  0.59593  0.86054  0.60876  1.0000
  I   I194      1.0  0.04709  0.17107  0.12727  1.0000
  I   I195      1.0  0.96216  0.68349  0.33929  1.0000
  I   I196      1.0  0.99490  0.03952  0.98145  1.0000
  I   I197      1.0  0.68998  0.10452  0.39842  1.0000
  I   I198      1.0  0.41005  0.24609  0.77751  1.0000
  I   I199      1.0  0.84959  0.00512  0.04643  1.0000
  I   I200      1.0  0.38792  0.26670  0.20822  1.0000
  I   I201      1.0  0.26419  0.82971  0.63955  1.0000
  I   I202      1.0  0.62299  0.95436  0.95655  1.0000
  I   I203      1.0  0.14946  0.05520  0.94967  1.0000
  I   I204      1.0  0.14911  0.59554  0.35689  1.0000
  I   I205      1.0  0.17611  0.14663  0.53691  1.0000
  I   I206      1.0  0.15752  0.97630  0.40495  1.0000
  I   I207      1.0  0.57346  0.22367  0.74965  1.0000
  I   I208      1.0  0.63487  0.90391  0.83435  1.0000
  I   I209      1.0  0.31262  0.10313  0.56619  1.0000
  I   I210      1.0  0.17869  0.66125  0.01216  1.0000
  I   I211      1.0  0.51111  0.78896  0.39289  1.0000
  I   I212      1.0  0.44095  0.94302  0.63491  1.0000
  I   I213      1.0  0.18444  0.10896  0.00557  1.0000
  I   I214      1.0  0.63564  0.40942  0.43731  1.0000
  I   I215      1.0  0.55061  0.04788  0.46591  1.0000
  I   I216      1.0  0.97088  0.96655  0.31290  1.0000
  I   I217      1.0  0.66172  0.76241  0.96528  1.0000
  I   I218      1.0  0.47009  0.95650  0.03002  1.0000
  I   I219      1.0  0.98298  0.86852  0.21988  1.0000
  I   I220      1.0  0.62497  0.33229  0.13880  1.0000
  I   I221      1.0  0.82217  0.91710  0.51727  1.0000
  I   I222      1.0  0.81923  0.25905  0.28893  1.0000
  I   I223      1.0  0.75942  0.22624  0.74968  1.0000
  I   I224      1.0  0.73354  0.23323  0.28748  1.0000
  I   I225      1.0  0.36945  0.84469  0.94808  1.0000
  I   I226      1.0  0.52303  0.49550  0.88570  1.0000
  I   I227      1.0  0.76804  0.50578  0.58016  1.0000
  I   I228      1.0  0.88841  0.57622  0.35009  1.0000
  I   I229      1.0  0.04117  0.35969  0.36427  1.0000
  I   I230      1.0  0.55085  0.33800  0.96401  1.0000
  I   I231      1.0  0.96698  0.86878  0.62211  1.0000
  I   I232      1.0  0.11294  0.10726  0.35922  1.0000
  I   I233      1.0  0.55905  0.66115  0.95075  1.0000
  I   I234      1.0  0.90934  0.32123  0.02178  1.0000
  I   I235      1.0  0.64107  0.15431  0.35317  1.0000
  I   I236      1.0  0.74595  0.63224  0.04669  1.0000
  I   I237      1.0  0.34939  0.61867  0.73407  1.0000
  I   I238      1.0  0.33051  0.42317  0.34429  1.0000
  I   I239      1.0  0.03379  0.49758  0.02978  1.0000
  I   I240      1.0  0.55850  0.67431  0.45636  1.0000
  I   I241      1.0  0.62025  0.81848  0.73193  1.0000
  I   I242      1.0  0.47888  0.07142  0.25795  1.0000
  I   I243      1.0  0.88758  0.72605  0.31649  1.0000
  I   I244      1.0  0.03581  0.02449  0.89116  1.0000
  I   I245      1.0  0.25688  0.55329  0.57365  1.0000
  I   I246      1.0  0.48509  0.18093  0.74353  1.0000
  I   I247      1.0  0.87753  0.02582  0.16526  1.0000
  I   I248      1.0  0.51882  0.19817  0.22280  1.0000
  I   I249      1.0  0.37684  0.71819  0.53096  1.0000
  I   I250      1.0  0.55169  0.01168  0.89094  1.0000
  I   I251      1.0  0.05996  0.51253  0.77067  1.0000
  I   I252      1.0  0.07987  0.63125  0.54594  1.0000
  I   I253      1.0  0.23502  0.14454  0.59069  1.0000
  I   I254      1.0  0.09262  0.07434  0.46821  1.0000
  I   I255      1.0  0.60261  0.25586  0.81231  1.0000
  I   I256      1.0  0.16465  0.32733  0.75129  1.0000
  I   I257      1.0  0.30468  0.17300  0.60383  1.0000
  I   I258      1.0  0.11876  0.63422  0.97039  1.0000
  I   I259      1.0  0.56252  0.73391  0.32775  1.0000
  I   I260      1.0  0.11468  0.30579  0.06916  1.0000
  I   I261      1.0  0.19813  0.97825  0.95488  1.0000
  I   I262      1.0  0.68300  0.38722  0.58780  1.0000
  I   I263      1.0  0.59006  0.03975  0.58011  1.0000
  I   I264      1.0  0.97910  0.96031  0.44771  1.0000
  I   I265      1.0  0.66514  0.78540  0.10180  1.0000
  I   I266      1.0  0.51121  0.91028  0.98233  1.0000
  I   I267      1.0  0.99386  0.88931  0.31752  1.0000
  I   I268      1.0  0.68677  0.33012  0.09855  1.0000
  I   I269      1.0  0.80679  0.03089  0.41443  1.0000
  I   I270      1.0  0.80529  0.30382  0.37491  1.0000
  I   I271      1.0  0.73243  0.27300  0.65007  1.0000
  I   I272      1.0  0.61113  0.30904  0.26751  1.0000
  I   I273      1.0  0.34126  0.91515  0.92311  1.0000
  I   I274      1.0  0.56944  0.54670  0.92578  1.0000
  I   I275      1.0  0.81636  0.50510  0.48387  1.0000
  I   I276      1.0  0.87608  0.52796  0.30818  1.0000
  I   I277      1.0  0.00418  0.42191  0.34882  1.0000
  I   I278      1.0  0.49535  0.29127  0.06414  1.0000
  I   I279      1.0  0.04032  0.89823  0.66209  1.0000
  I   I280      1.0  0.60515  0.88974  0.26423  1.0000
  I   I281      1.0  0.65237  0.61965  0.08031  1.0000
  I   I282      1.0  0.88610  0.33219  0.16264  1.0000
  I   I283      1.0  0.62578  0.13744  0.45958  1.0000
  I   I284      1.0  0.77229  0.55885  0.07473  1.0000
  I   I285      1.0  0.40833  0.56183  0.71287  1.0000
  I   I286      1.0  0.34897  0.50704  0.20625  1.0000
  I   I287      1.0  0.15679  0.49172  0.04546  1.0000
  I   I288      1.0  0.50098  0.69705  0.49777  1.0000
  I   I289      1.0  0.58153  0.79027  0.64464  1.0000
  I   I290      1.0  0.97712  0.20769  0.15407  1.0000
  I   I291      1.0  0.43583  0.10387  0.16356  1.0000
  I   I292      1.0  0.08295  0.96550  0.85592  1.0000
  I   I293      1.0  0.19632  0.62540  0.51845  1.0000
  I   I294      1.0  0.44199  0.27532  0.84366  1.0000
  I   I295      1.0  0.79729  0.06504  0.26059  1.0000
  I   I296      1.0  0.48400  0.15467  0.21445  1.0000
  I   I297      1.0  0.27757  0.76327  0.67429  1.0000
  I   I298      1.0  0.70155  0.18770  0.61664  1.0000
  I   I299      1.0  0.68144  0.92670  0.37888  1.0000
  I   I300      1.0  0.08250  0.64839  0.37478  1.0000
  I   I301      1.0  0.62364  0.27587  0.71047  1.0000
  I   I302      1.0  0.20488  0.24264  0.60362  1.0000
  I   I303      1.0  0.09550  0.08205  0.29676  1.0000
  I   I304      1.0  0.11743  0.58547  0.06361  1.0000
  I   I305      1.0  0.69252  0.87200  0.75485  1.0000
  I   I306      1.0  0.50649  0.29052  0.18248  1.0000
  I   I307      1.0  0.48027  0.87182  0.29477  1.0000
  I   I308      1.0  0.39815  0.00862  0.62967  1.0000
  I   I309      1.0  0.16582  0.10187  0.88268  1.0000
  I   I310      1.0  0.69276  0.39164  0.46942  1.0000
  I   I311      1.0  0.56883  0.11700  0.63077  1.0000
  I   I312      1.0  0.14462  0.93923  0.15947  1.0000
  I   I313      1.0  0.02969  0.82036  0.36050  1.0000
  I   I314      1.0  0.70367  0.76970  0.00709  1.0000
  I   I315      1.0  0.40001  0.96523  0.01201  1.0000
  I   I316      1.0  0.84295  0.21416  0.38854  1.0000
  I   I317      1.0  0.64663  0.37814  0.02507  1.0000
  I   I318      1.0  0.77233  0.97712  0.47496  1.0000
  I   I319      1.0  0.49510  0.42313  0.64245  1.0000
  I   I320      1.0  0.85055  0.11316  0.62178  1.0000
  I   I321      1.0  0.71501  0.19132  0.22042  1.0000
  I   I322      1.0  0.56567  0.49413  0.03190  1.0000
  I   I323      1.0  0.71422  0.54469  0.62904  1.0000
  I   I324      1.0  0.83935  0.60883  0.47097  1.0000
  I   I325      1.0  0.95975  0.37702  0.14723  1.0000
  I   I326      1.0  0.45917  0.34219  0.13869  1.0000
  I   I327      1.0  0.97422  0.93101  0.65159  1.0000
  I   I328      1.0  0.15518  0.11491  0.24358  1.0000
  I   I329      1.0  0.62415  0.65105  0.97858  1.0000
  I   I330      1.0  0.93136  0.25095  0.07680  1.0000
  I   I331      1.0  0.42735  0.60725  0.64430  1.0000
  I   I332      1.0  0.67481  0.17747  0.43899  1.0000
  I   I333      1.0  0.78895  0.58893  0.14220  1.0000
  I   I334      1.0  0.57985  0.62925  0.55683  1.0000
  I   I335      1.0  0.26527  0.46262  0.34929  1.0000
  I   I336      1.0  0.11845  0.47474  0.09128  1.0000
  I   I337      1.0  0.53438  0.86148  0.60761  1.0000
  I   I338      1.0  0.02308  0.23465  0.21143  1.0000
  I   I339      1.0  0.43973  0.04485  0.22388  1.0000
  I   I340      1.0  0.07138  0.01413  0.98712  1.0000
  I   I341      1.0  0.88425  0.79326  0.62239  1.0000
  I   I342      1.0  0.44776  0.27382  0.72724  1.0000
  I   I343      1.0  0.86447  0.01443  0.26669  1.0000
  I   I344      1.0  0.39323  0.21216  0.25988  1.0000
  I   I345      1.0  0.28620  0.77332  0.56017  1.0000
  I   I346      1.0  0.68814  0.13843  0.51351  1.0000
  I   I347      1.0  0.57511  0.02297  0.00205  1.0000
  I   I348      1.0  0.09363  0.57554  0.36049  1.0000
  I   I349      1.0  0.62296  0.32261  0.78054  1.0000
  I   I350      1.0  0.23235  0.18695  0.66786  1.0000
  I   I351      1.0  0.04990  0.11258  0.38478  1.0000
  I   I352      1.0  0.12927  0.67978  0.93105  1.0000
  I   I353      1.0  0.10803  0.30156  0.75729  1.0000
  I   I354      1.0  0.43743  0.36862  0.25127  1.0000
  I   I355      1.0  0.48110  0.85542  0.40559  1.0000
  I   I356      1.0  0.10774  0.35434  0.98713  1.0000
  I   I357      1.0  0.21517  0.04208  0.88218  1.0000
  I   I358      1.0  0.95280  0.92849  0.38016  1.0000
  I   I359      1.0  0.62307  0.07967  0.57162  1.0000
  I   I360      1.0  0.21609  0.92429  0.19927  1.0000
  I   I361      1.0  0.98044  0.76866  0.34181  1.0000
  I   I362      1.0  0.62612  0.83149  0.94972  1.0000
  I   I363      1.0  0.48824  0.85458  0.03613  1.0000
  I   I364      1.0  0.81295  0.26339  0.44644  1.0000
  I   I365      1.0  0.69069  0.38343  0.11953  1.0000
  I   I366      1.0  0.80709  0.96557  0.59782  1.0000
  I   I367      1.0  0.48151  0.42216  0.79590  1.0000
  I   I368      1.0  0.79125  0.15352  0.68091  1.0000
  I   I369      1.0  0.66989  0.24739  0.26866  1.0000
  I   I370      1.0  0.56974  0.43650  0.96844  1.0000
  I   I371      1.0  0.77248  0.50089  0.41592  1.0000
  I   I372      1.0  0.81713  0.61113  0.36880  1.0000
  I   I373      1.0  0.97797  0.39067  0.40183  1.0000
  I   I374      1.0  0.55327  0.27413  0.96160  1.0000
  I   I375      1.0  0.92761  0.92158  0.57430  1.0000
  I   I376      1.0  0.57986  0.92694  0.15150  1.0000
  I   I377      1.0  0.53626  0.62330  0.00480  1.0000
  I   I378      1.0  0.95951  0.28514  0.09985  1.0000
  I   I379      1.0  0.41430  0.61112  0.76058  1.0000
  I   I380      1.0  0.78962  0.09935  0.74566  1.0000
  I   I381      1.0  0.81599  0.50725  0.10016  1.0000
  I   I382      1.0  0.44800  0.74789  0.56127  1.0000
  I   I383      1.0  0.29995  0.50059  0.34995  1.0000
  I   I384      1.0  0.09729  0.53289  0.00003  1.0000
