data_image0
_chemical_formula_structural       Ti96I384
_chemical_formula_sum              "Ti96 I384"
_cell_length_a       66.6411
_cell_length_b       66.6181
_cell_length_c       32.5664
_cell_angle_alpha    88.7757
_cell_angle_beta     88.7757
_cell_angle_gamma    62.1586

_space_group_name_H-M_alt    "P 1"
_space_group_IT_number       1

loop_
  _space_group_symop_operation_xyz
  'x, y, z'

loop_
  _atom_site_type_symbol
  _atom_site_label
  _atom_site_symmetry_multiplicity
  _atom_site_fract_x
  _atom_site_fract_y
  _atom_site_fract_z
  _atom_site_occupancy
  Ti  Ti1       1.0  0.24812  0.74079  0.30438  1.0000
  Ti  Ti2       1.0  0.57386  0.00685  0.01981  1.0000
  Ti  Ti3       1.0  0.71502  0.90788  0.44160  1.0000
  Ti  Ti4       1.0  0.98289  0.04432  0.02661  1.0000
  Ti  Ti5       1.0  0.76969  0.80708  0.49447  1.0000
  Ti  Ti6       1.0  0.16098  0.49412  0.66820  1.0000
  Ti  Ti7       1.0  0.88215  0.28318  0.44338  1.0000
  Ti  Ti8       1.0  0.36210  0.07892  0.71546  1.0000
  Ti  Ti9       1.0  0.31226  0.86667  0.91555  1.0000
  Ti  Ti10      1.0  0.76969  0.00833  0.17254  1.0000
  Ti  Ti11      1.0  0.03783  0.21200  0.96794  1.0000
  Ti  Ti12      1.0  0.17400  0.55885  0.43838  1.0000
  Ti  Ti13      1.0  0.16544  0.03403  0.91416  1.0000
  Ti  Ti14      1.0  0.02645  0.09223  0.45689  1.0000
  Ti  Ti15      1.0  0.61267  0.10474  0.66781  1.0000
  Ti  Ti16      1.0  0.74906  0.07587  0.19252  1.0000
  Ti  Ti17      1.0  0.33001  0.01860  0.07917  1.0000
  Ti  Ti18      1.0  0.07416  0.75258  0.31382  1.0000
  Ti  Ti19      1.0  0.53024  0.51039  0.13721  1.0000
  Ti  Ti20      1.0  0.33362  0.86130  0.60271  1.0000
  Ti  Ti21      1.0  0.36135  0.03206  0.63288  1.0000
  Ti  Ti22      1.0  0.68247  0.65763  0.88202  1.0000
  Ti  Ti23      1.0  0.50124  0.06287  0.69408  1.0000
  Ti  Ti24      1.0  0.28958  0.75301  0.71207  1.0000
  Ti  Ti25      1.0  0.60921  0.82473  0.74770  1.0000
  Ti  Ti26      1.0  0.41574  0.80839  0.34771  1.0000
  Ti  Ti27      1.0  0.77707  0.01411  0.55173  1.0000
  Ti  Ti28      1.0  0.69359  0.48073  0.60314  1.0000
  Ti  Ti29      1.0  0.86727  0.92862  0.90681  1.0000
  Ti  Ti30      1.0  0.23423  0.16720  0.39743  1.0000
  Ti  Ti31      1.0  0.03092  0.87551  0.39987  1.0000
  Ti  Ti32      1.0  0.77903  0.36114  0.07742  1.0000
  Ti  Ti33      1.0  0.09248  0.89982  0.18596  1.0000
  Ti  Ti34      1.0  0.44231  0.45508  0.93152  1.0000
  Ti  Ti35      1.0  0.65422  0.57635  0.14848  1.0000
  Ti  Ti36      1.0  0.73186  0.95775  0.86977  1.0000
  Ti  Ti37      1.0  0.07379  0.48202  0.33339  1.0000
  Ti  Ti38      1.0  0.61302  0.28813  0.09283  1.0000
  Ti  Ti39      1.0  0.98312  0.58195  0.19884  1.0000
  Ti  Ti40      1.0  0.27748  0.23883  0.93514  1.0000
  Ti  Ti41      1.0  0.49304  0.69901  0.63187  1.0000
  Ti  Ti42      1.0  0.85946  0.47268  0.25518  1.0000
  Ti  Ti43      1.0  0.60397  0.19657  0.37663  1.0000
  Ti  Ti44      1.0  0.90350  0.37913  0.70506  1.0000
  Ti  Ti45      1.0  0.36892  0.56978  0.58650  1.0000
  Ti  Ti46      1.0  0.44536  0.47155  0.46584  1.0000
  Ti  Ti47      1.0  0.23291  0.50908  0.15935  1.0000
  Ti  Ti48      1.0  0.57772  0.29277  0.69482  1.0000
  Ti  Ti49      1.0  0.75691  0.63505  0.50370  1.0000
  Ti  Ti50      1.0  0.99730  0.32698  0.81542  1.0000
  Ti  Ti51      1.0  0.53050  0.99018  0.98279  1.0000
  Ti  Ti52      1.0  0.00386  0.00520  0.10322  1.0000
  Ti  Ti53      1.0  0.44804  0.65561  0.89247  1.0000
  Ti  Ti54      1.0  0.20762  0.49307  0.72211  1.0000
  Ti  Ti55      1.0  0.89632  0.23362  0.44264  1.0000
  Ti  Ti56      1.0  0.34320  0.44891  0.70707  1.0000
  Ti  Ti57      1.0  0.23814  0.90064  0.95508  1.0000
  Ti  Ti58      1.0  0.64967  0.19001  0.33344  1.0000
  Ti  Ti59      1.0  0.13688  0.29150  0.83811  1.0000
  Ti  Ti60      1.0  0.12033  0.61418  0.48653  1.0000
  Ti  Ti61      1.0  0.66330  0.03493  0.68881  1.0000
  Ti  Ti62      1.0  0.16896  0.05706  0.80677  1.0000
  Ti  Ti63      1.0  0.97699  0.10248  0.48344  1.0000
  Ti  Ti64      1.0  0.06232  0.71580  0.25118  1.0000
  Ti  Ti65      1.0  0.99906  0.47514  0.62568  1.0000
  Ti  Ti66      1.0  0.51199  0.28649  0.17464  1.0000
  Ti  Ti67      1.0  0.58949  0.46927  0.09143  1.0000
  Ti  Ti68      1.0  0.01810  0.43919  0.05140  1.0000
  Ti  Ti69      1.0  0.42950  0.96251  0.94354  1.0000
  Ti  Ti70      1.0  0.64994  0.63890  0.78435  1.0000
  Ti  Ti71      1.0  0.52933  0.00145  0.65857  1.0000
  Ti  Ti72      1.0  0.08143  0.13942  0.14528  1.0000
  Ti  Ti73      1.0  0.80513  0.03662  0.60158  1.0000
  Ti  Ti74      1.0  0.60236  0.86688  0.82636  1.0000
  Ti  Ti75      1.0  0.37138  0.87995  0.32795  1.0000
  Ti  Ti76      1.0  0.20815  0.11742  0.35808  1.0000
  Ti  Ti77      1.0  0.66518  0.50919  0.71829  1.0000
  Ti  Ti78      1.0  0.93502  0.92342  0.88768  1.0000
  Ti  Ti79      1.0  0.60495  0.37292  0.37172  1.0000
  Ti  Ti80      1.0  0.74511  0.13906  0.91161  1.0000
  Ti  Ti81      1.0  0.74083  0.36956  0.18679  1.0000
  Ti  Ti82      1.0  0.48444  0.47950  0.87104  1.0000
  Ti  Ti83      1.0  0.68906  0.51969  0.14476  1.0000
  Ti  Ti84      1.0  0.77415  0.87933  0.89429  1.0000
  Ti  Ti85      1.0  0.03683  0.49091  0.41515  1.0000
  Ti  Ti86      1.0  0.57816  0.28723  0.19005  1.0000
  Ti  Ti87      1.0  0.92839  0.59200  0.17009  1.0000
  Ti  Ti88      1.0  0.58404  0.69906  0.33526  1.0000
  Ti  Ti89      1.0  0.45058  0.75165  0.65093  1.0000
  Ti  Ti90      1.0  0.84078  0.46831  0.15522  1.0000
  Ti  Ti91      1.0  0.30349  0.61635  0.54379  1.0000
  Ti  Ti92      1.0  0.06807  0.75656  0.88575  1.0000
  Ti  Ti93      1.0  0.92269  0.38805  0.57606  1.0000
  Ti  Ti94      1.0  0.59723  0.27165  0.57305  1.0000
  Ti  Ti95      1.0  0.44699  0.46419  0.35864  1.0000
  Ti  Ti96      1.0  0.19484  0.50454  0.11286  1.0000
  I   I1        1.0  0.18807  0.46882  0.13316  1.0000
  I   I2        1.0  0.53375  0.01274  0.05282  1.0000
  I   I3        1.0  0.72824  0.66158  0.43636  1.0000
  I   I4        1.0  0.40613  0.67357  0.87168  1.0000
  I   I5        1.0  0.16152  0.52435  0.73394  1.0000
  I   I6        1.0  0.22386  0.45935  0.77831  1.0000
  I   I7        1.0  0.33059  0.08514  0.78285  1.0000
  I   I8        1.0  0.32863  0.45201  0.78883  1.0000
  I   I9        1.0  0.26619  0.88685  0.87037  1.0000
  I   I10       1.0  0.76706  0.09743  0.14725  1.0000
  I   I11       1.0  0.00940  0.22766  0.02864  1.0000
  I   I12       1.0  0.74124  0.79915  0.46031  1.0000
  I   I13       1.0  0.14080  0.02740  0.86538  1.0000
  I   I14       1.0  0.00510  0.08799  0.54258  1.0000
  I   I15       1.0  0.57154  0.13468  0.69093  1.0000
  I   I16       1.0  0.75641  0.08885  0.26333  1.0000
  I   I17       1.0  0.50380  0.30045  0.09689  1.0000
  I   I18       1.0  0.04961  0.68428  0.27546  1.0000
  I   I19       1.0  0.32854  0.83213  0.65378  1.0000
  I   I20       1.0  0.05687  0.23776  0.97441  1.0000
  I   I21       1.0  0.36871  0.03321  0.55370  1.0000
  I   I22       1.0  0.45835  0.08314  0.71428  1.0000
  I   I23       1.0  0.54865  0.02826  0.66226  1.0000
  I   I24       1.0  0.63039  0.67901  0.80789  1.0000
  I   I25       1.0  0.57217  0.88679  0.88713  1.0000
  I   I26       1.0  0.35570  0.89375  0.25493  1.0000
  I   I27       1.0  0.77751  0.07448  0.56700  1.0000
  I   I28       1.0  0.62893  0.54338  0.70145  1.0000
  I   I29       1.0  0.96200  0.94148  0.90687  1.0000
  I   I30       1.0  0.26093  0.15161  0.45541  1.0000
  I   I31       1.0  0.78447  0.12786  0.93636  1.0000
  I   I32       1.0  0.69994  0.39892  0.20547  1.0000
  I   I33       1.0  0.61079  0.40380  0.33690  1.0000
  I   I34       1.0  0.68996  0.50175  0.07417  1.0000
  I   I35       1.0  0.72494  0.97411  0.79509  1.0000
  I   I36       1.0  0.44653  0.41412  0.93232  1.0000
  I   I37       1.0  0.03277  0.52018  0.46718  1.0000
  I   I38       1.0  0.89829  0.61242  0.22811  1.0000
  I   I39       1.0  0.08134  0.46203  0.42518  1.0000
  I   I40       1.0  0.41084  0.76149  0.61922  1.0000
  I   I41       1.0  0.86219  0.43888  0.10047  1.0000
  I   I42       1.0  0.24848  0.26922  0.98125  1.0000
  I   I43       1.0  0.68517  0.15208  0.30172  1.0000
  I   I44       1.0  0.89657  0.41028  0.64353  1.0000
  I   I45       1.0  0.32004  0.59623  0.61489  1.0000
  I   I46       1.0  0.46646  0.43109  0.30839  1.0000
  I   I47       1.0  0.23672  0.54206  0.19409  1.0000
  I   I48       1.0  0.54284  0.29236  0.66825  1.0000
  I   I49       1.0  0.75655  0.66346  0.55903  1.0000
  I   I50       1.0  0.60429  0.99537  0.96215  1.0000
  I   I51       1.0  0.57341  0.95660  0.01405  1.0000
  I   I52       1.0  0.99449  0.07579  0.06353  1.0000
  I   I53       1.0  0.43928  0.69815  0.91728  1.0000
  I   I54       1.0  0.23814  0.50552  0.71608  1.0000
  I   I55       1.0  0.85231  0.32130  0.40879  1.0000
  I   I56       1.0  0.39201  0.07893  0.76945  1.0000
  I   I57       1.0  0.30263  0.83264  0.92729  1.0000
  I   I58       1.0  0.78105  0.99378  0.09689  1.0000
  I   I59       1.0  0.12595  0.25720  0.83099  1.0000
  I   I60       1.0  0.09066  0.60081  0.46134  1.0000
  I   I61       1.0  0.15457  0.03950  0.75120  1.0000
  I   I62       1.0  0.13171  0.06250  0.95876  1.0000
  I   I63       1.0  0.05993  0.04940  0.46780  1.0000
  I   I64       1.0  0.73413  0.04492  0.22496  1.0000
  I   I65       1.0  0.01704  0.45057  0.68759  1.0000
  I   I66       1.0  0.47362  0.31068  0.20127  1.0000
  I   I67       1.0  0.55699  0.45903  0.13685  1.0000
  I   I68       1.0  0.34007  0.89467  0.62875  1.0000
  I   I69       1.0  0.43990  0.93015  0.99747  1.0000
  I   I70       1.0  0.62947  0.61531  0.80358  1.0000
  I   I71       1.0  0.52684  0.08197  0.71278  1.0000
  I   I72       1.0  0.10179  0.14541  0.20338  1.0000
  I   I73       1.0  0.80828  0.05236  0.67400  1.0000
  I   I74       1.0  0.41796  0.77714  0.29732  1.0000
  I   I75       1.0  0.40069  0.83931  0.28267  1.0000
  I   I76       1.0  0.66538  0.48042  0.54251  1.0000
  I   I77       1.0  0.65593  0.48343  0.77202  1.0000
  I   I78       1.0  0.96729  0.88411  0.91336  1.0000
  I   I79       1.0  0.12852  0.87182  0.23214  1.0000
  I   I80       1.0  0.03618  0.85657  0.47699  1.0000
  I   I81       1.0  0.77894  0.36654  0.20970  1.0000
  I   I82       1.0  0.48140  0.52007  0.86273  1.0000
  I   I83       1.0  0.68731  0.54690  0.21047  1.0000
  I   I84       1.0  0.75870  0.88207  0.96564  1.0000
  I   I85       1.0  0.02205  0.47866  0.48350  1.0000
  I   I86       1.0  0.57637  0.28006  0.10210  1.0000
  I   I87       1.0  0.02722  0.56056  0.17932  1.0000
  I   I88       1.0  0.27267  0.25210  0.85743  1.0000
  I   I89       1.0  0.44637  0.72768  0.70994  1.0000
  I   I90       1.0  0.82552  0.50373  0.10185  1.0000
  I   I91       1.0  0.27797  0.65911  0.55514  1.0000
  I   I92       1.0  0.07360  0.75885  0.80562  1.0000
  I   I93       1.0  0.86402  0.40194  0.74047  1.0000
  I   I94       1.0  0.58838  0.27200  0.76791  1.0000
  I   I95       1.0  0.43561  0.45137  0.52686  1.0000
  I   I96       1.0  0.15116  0.53623  0.10449  1.0000
  I   I97       1.0  0.67639  0.91290  0.47496  1.0000
  I   I98       1.0  0.24703  0.77787  0.27685  1.0000
  I   I99       1.0  0.60653  0.99248  0.07930  1.0000
  I   I100      1.0  0.99514  0.99790  0.01449  1.0000
  I   I101      1.0  0.04628  0.97243  0.07459  1.0000
  I   I102      1.0  0.80236  0.80127  0.43875  1.0000
  I   I103      1.0  0.91144  0.20264  0.38448  1.0000
  I   I104      1.0  0.86641  0.27393  0.51908  1.0000
  I   I105      1.0  0.22756  0.90840  0.03391  1.0000
  I   I106      1.0  0.20663  0.55198  0.38194  1.0000
  I   I107      1.0  0.76558  0.97171  0.17914  1.0000
  I   I108      1.0  0.16601  0.52969  0.39297  1.0000
  I   I109      1.0  0.62314  0.12390  0.60630  1.0000
  I   I110      1.0  0.12862  0.09154  0.80994  1.0000
  I   I111      1.0  0.99561  0.05949  0.45508  1.0000
  I   I112      1.0  0.09786  0.70276  0.30861  1.0000
  I   I113      1.0  0.03460  0.48178  0.62709  1.0000
  I   I114      1.0  0.31876  0.04730  0.13768  1.0000
  I   I115      1.0  0.57831  0.49869  0.16219  1.0000
  I   I116      1.0  0.49528  0.50318  0.12690  1.0000
  I   I117      1.0  0.00313  0.47342  0.09859  1.0000
  I   I118      1.0  0.69301  0.63334  0.80452  1.0000
  I   I119      1.0  0.65655  0.63904  0.70580  1.0000
  I   I120      1.0  0.09677  0.14506  0.07323  1.0000
  I   I121      1.0  0.82307  0.99663  0.55169  1.0000
  I   I122      1.0  0.59742  0.80836  0.68640  1.0000
  I   I123      1.0  0.39726  0.85313  0.38570  1.0000
  I   I124      1.0  0.20517  0.08575  0.40752  1.0000
  I   I125      1.0  0.72143  0.48321  0.55604  1.0000
  I   I126      1.0  0.89296  0.95634  0.87886  1.0000
  I   I127      1.0  0.09269  0.93640  0.20278  1.0000
  I   I128      1.0  0.73062  0.18154  0.93180  1.0000
  I   I129      1.0  0.74070  0.33478  0.22729  1.0000
  I   I130      1.0  0.77434  0.91700  0.84256  1.0000
  I   I131      1.0  0.48641  0.44001  0.91839  1.0000
  I   I132      1.0  0.63948  0.53849  0.14637  1.0000
  I   I133      1.0  0.99706  0.60886  0.23708  1.0000
  I   I134      1.0  0.64715  0.29363  0.11316  1.0000
  I   I135      1.0  0.62216  0.25203  0.19379  1.0000
  I   I136      1.0  0.88944  0.46817  0.30463  1.0000
  I   I137      1.0  0.60497  0.67741  0.40172  1.0000
  I   I138      1.0  0.49730  0.66658  0.68572  1.0000
  I   I139      1.0  0.41239  0.55716  0.57160  1.0000
  I   I140      1.0  0.04759  0.73161  0.88879  1.0000
  I   I141      1.0  0.92423  0.35044  0.62714  1.0000
  I   I142      1.0  0.55703  0.33342  0.72370  1.0000
  I   I143      1.0  0.42616  0.49254  0.29475  1.0000
  I   I144      1.0  0.24632  0.48067  0.22529  1.0000
  I   I145      1.0  0.28531  0.70364  0.31379  1.0000
  I   I146      1.0  0.56438  0.04904  0.03528  1.0000
  I   I147      1.0  0.75452  0.89887  0.48062  1.0000
  I   I148      1.0  0.95921  0.04650  0.09247  1.0000
  I   I149      1.0  0.78718  0.77913  0.55510  1.0000
  I   I150      1.0  0.11860  0.52629  0.65326  1.0000
  I   I151      1.0  0.88982  0.20988  0.50058  1.0000
  I   I152      1.0  0.37082  0.02963  0.71652  1.0000
  I   I153      1.0  0.21525  0.87781  0.94072  1.0000
  I   I154      1.0  0.61419  0.19227  0.28918  1.0000
  I   I155      1.0  0.06659  0.16841  0.94680  1.0000
  I   I156      1.0  0.10753  0.64671  0.43424  1.0000
  I   I157      1.0  0.62920  0.12202  0.72351  1.0000
  I   I158      1.0  0.96471  0.14748  0.50132  1.0000
  I   I159      1.0  0.70509  0.00616  0.69437  1.0000
  I   I160      1.0  0.08157  0.74415  0.22235  1.0000
  I   I161      1.0  0.37170  0.99168  0.08899  1.0000
  I   I162      1.0  0.02216  0.74984  0.24811  1.0000
  I   I163      1.0  0.50175  0.54044  0.18550  1.0000
  I   I164      1.0  0.98514  0.42683  0.05927  1.0000
  I   I165      1.0  0.38665  0.98693  0.63080  1.0000
  I   I166      1.0  0.69035  0.64916  0.95710  1.0000
  I   I167      1.0  0.48728  0.08748  0.62960  1.0000
  I   I168      1.0  0.27247  0.77097  0.78346  1.0000
  I   I169      1.0  0.59785  0.89902  0.77259  1.0000
  I   I170      1.0  0.63960  0.84059  0.72858  1.0000
  I   I171      1.0  0.73605  0.04765  0.54814  1.0000
  I   I172      1.0  0.22685  0.08577  0.30691  1.0000
  I   I173      1.0  0.84977  0.89797  0.91092  1.0000
  I   I174      1.0  0.19898  0.20427  0.40867  1.0000
  I   I175      1.0  0.98929  0.88236  0.37199  1.0000
  I   I176      1.0  0.78760  0.39508  0.05923  1.0000
  I   I177      1.0  0.56300  0.39754  0.38841  1.0000
  I   I178      1.0  0.52160  0.46497  0.90573  1.0000
  I   I179      1.0  0.67144  0.49228  0.19054  1.0000
  I   I180      1.0  0.75685  0.85927  0.84324  1.0000
  I   I181      1.0  0.00835  0.53090  0.37337  1.0000
  I   I182      1.0  0.55463  0.25979  0.19612  1.0000
  I   I183      1.0  0.90857  0.62006  0.10884  1.0000
  I   I184      1.0  0.60536  0.72223  0.31624  1.0000
  I   I185      1.0  0.47917  0.67531  0.58158  1.0000
  I   I186      1.0  0.88028  0.47864  0.17710  1.0000
  I   I187      1.0  0.10387  0.74187  0.93325  1.0000
  I   I188      1.0  0.91537  0.40436  0.74628  1.0000
  I   I189      1.0  0.35321  0.60751  0.52083  1.0000
  I   I190      1.0  0.48066  0.47508  0.36997  1.0000
  I   I191      1.0  0.99979  0.35403  0.76332  1.0000
  I   I192      1.0  0.60347  0.29460  0.50501  1.0000
  I   I193      1.0  0.21607  0.73982  0.26632  1.0000
  I   I194      1.0  0.95222  0.35115  0.84458  1.0000
  I   I195      1.0  0.70679  0.94874  0.42167  1.0000
  I   I196      1.0  0.00079  0.05777  0.96633  1.0000
  I   I197      1.0  0.63325  0.15044  0.35121  1.0000
  I   I198      1.0  0.16030  0.47771  0.60054  1.0000
  I   I199      1.0  0.92005  0.24549  0.49373  1.0000
  I   I200      1.0  0.32500  0.49180  0.68668  1.0000
  I   I201      1.0  0.34037  0.85160  0.97243  1.0000
  I   I202      1.0  0.15609  0.28535  0.91482  1.0000
  I   I203      1.0  0.39057  0.99784  0.92870  1.0000
  I   I204      1.0  0.19480  0.52320  0.48426  1.0000
  I   I205      1.0  0.17986  0.06423  0.88558  1.0000
  I   I206      1.0  0.93301  0.10948  0.47275  1.0000
  I   I207      1.0  0.65264  0.02109  0.76253  1.0000
  I   I208      1.0  0.70947  0.11129  0.18796  1.0000
  I   I209      1.0  0.31971  0.04644  0.01770  1.0000
  I   I210      1.0  0.05920  0.79236  0.28137  1.0000
  I   I211      1.0  0.62572  0.43063  0.10152  1.0000
  I   I212      1.0  0.29834  0.87652  0.55289  1.0000
  I   I213      1.0  0.44254  0.99202  0.96414  1.0000
  I   I214      1.0  0.72833  0.65373  0.87854  1.0000
  I   I215      1.0  0.49365  0.02176  0.60798  1.0000
  I   I216      1.0  0.32995  0.74769  0.69289  1.0000
  I   I217      1.0  0.57125  0.86695  0.76695  1.0000
  I   I218      1.0  0.33382  0.87762  0.35908  1.0000
  I   I219      1.0  0.79322  0.99002  0.47729  1.0000
  I   I220      1.0  0.71351  0.43481  0.61491  1.0000
  I   I221      1.0  0.83736  0.96209  0.95151  1.0000
  I   I222      1.0  0.20808  0.14316  0.42610  1.0000
  I   I223      1.0  0.05403  0.89852  0.39870  1.0000
  I   I224      1.0  0.81801  0.33910  0.11090  1.0000
  I   I225      1.0  0.09819  0.89601  0.10322  1.0000
  I   I226      1.0  0.49458  0.46767  0.79837  1.0000
  I   I227      1.0  0.66538  0.56628  0.06587  1.0000
  I   I228      1.0  0.76174  0.97209  0.88530  1.0000
  I   I229      1.0  0.06224  0.50768  0.27242  1.0000
  I   I230      1.0  0.64138  0.24509  0.07758  1.0000
  I   I231      1.0  0.91888  0.56060  0.15725  1.0000
  I   I232      1.0  0.02887  0.12064  0.51186  1.0000
  I   I233      1.0  0.53414  0.68326  0.58329  1.0000
  I   I234      1.0  0.80517  0.47347  0.19192  1.0000
  I   I235      1.0  0.66206  0.17728  0.40442  1.0000
  I   I236      1.0  0.87581  0.41113  0.55648  1.0000
  I   I237      1.0  0.30125  0.60605  0.46962  1.0000
  I   I238      1.0  0.43838  0.51466  0.46713  1.0000
  I   I239      1.0  0.21925  0.48235  0.05081  1.0000
  I   I240      1.0  0.59945  0.24735  0.64040  1.0000
  I   I241      1.0  0.71997  0.63191  0.51274  1.0000
  I   I242      1.0  0.54707  0.95834  0.92469  1.0000
  I   I243      1.0  0.72818  0.88245  0.37607  1.0000
  I   I244      1.0  0.02020  0.02511  0.14959  1.0000
  I   I245      1.0  0.45918  0.62893  0.95539  1.0000
  I   I246      1.0  0.21653  0.45777  0.67042  1.0000
  I   I247      1.0  0.90723  0.26408  0.38083  1.0000
  I   I248      1.0  0.33903  0.11909  0.69427  1.0000
  I   I249      1.0  0.27796  0.90593  0.95620  1.0000
  I   I250      1.0  0.17171  0.28670  0.79722  1.0000
  I   I251      1.0  0.00698  0.22691  0.90722  1.0000
  I   I252      1.0  0.10374  0.62725  0.55822  1.0000
  I   I253      1.0  0.19812  0.01044  0.84973  1.0000
  I   I254      1.0  0.99069  0.11108  0.40325  1.0000
  I   I255      1.0  0.65507  0.02069  0.62003  1.0000
  I   I256      1.0  0.96466  0.51034  0.65447  1.0000
  I   I257      1.0  0.30024  0.00291  0.06425  1.0000
  I   I258      1.0  0.04357  0.74920  0.36365  1.0000
  I   I259      1.0  0.58910  0.47001  0.01088  1.0000
  I   I260      1.0  0.05556  0.40287  0.06741  1.0000
  I   I261      1.0  0.31969  0.06398  0.63148  1.0000
  I   I262      1.0  0.65727  0.70193  0.89640  1.0000
  I   I263      1.0  0.51965  0.96361  0.67367  1.0000
  I   I264      1.0  0.26052  0.78616  0.66904  1.0000
  I   I265      1.0  0.64679  0.78683  0.74845  1.0000
  I   I266      1.0  0.45573  0.80525  0.34946  1.0000
  I   I267      1.0  0.83511  0.04916  0.57705  1.0000
  I   I268      1.0  0.65635  0.48795  0.64431  1.0000
  I   I269      1.0  0.94164  0.92226  0.81265  1.0000
  I   I270      1.0  0.24615  0.13075  0.34784  1.0000
  I   I271      1.0  0.06165  0.83767  0.37268  1.0000
  I   I272      1.0  0.76430  0.33041  0.12876  1.0000
  I   I273      1.0  0.05332  0.90316  0.19535  1.0000
  I   I274      1.0  0.44076  0.49756  0.91572  1.0000
  I   I275      1.0  0.68001  0.59557  0.12468  1.0000
  I   I276      1.0  0.81099  0.83944  0.89708  1.0000
  I   I277      1.0  0.07123  0.52017  0.37199  1.0000
  I   I278      1.0  0.58586  0.31981  0.15572  1.0000
  I   I279      1.0  0.96740  0.56407  0.25331  1.0000
  I   I280      1.0  0.59777  0.66336  0.29143  1.0000
  I   I281      1.0  0.43535  0.79010  0.69215  1.0000
  I   I282      1.0  0.82488  0.47722  0.30853  1.0000
  I   I283      1.0  0.56481  0.19464  0.36733  1.0000
  I   I284      1.0  0.94202  0.41411  0.56022  1.0000
  I   I285      1.0  0.36662  0.60365  0.63881  1.0000
  I   I286      1.0  0.41112  0.47949  0.42029  1.0000
  I   I287      1.0  0.19192  0.50956  0.20083  1.0000
  I   I288      1.0  0.58712  0.30824  0.61372  1.0000
  I   I289      1.0  0.78655  0.59054  0.49019  1.0000
  I   I290      1.0  0.02066  0.28333  0.79670  1.0000
  I   I291      1.0  0.55583  0.00567  0.92709  1.0000
  I   I292      1.0  0.97827  0.98945  0.13173  1.0000
  I   I293      1.0  0.46816  0.63870  0.82429  1.0000
  I   I294      1.0  0.19255  0.51169  0.62651  1.0000
  I   I295      1.0  0.89682  0.30993  0.49022  1.0000
  I   I296      1.0  0.38696  0.44125  0.72335  1.0000
  I   I297      1.0  0.21961  0.93331  0.90549  1.0000
  I   I298      1.0  0.66839  0.21826  0.32377  1.0000
  I   I299      1.0  0.77791  0.04423  0.13913  1.0000
  I   I300      1.0  0.15220  0.57485  0.52489  1.0000
  I   I301      1.0  0.66633  0.07160  0.65225  1.0000
  I   I302      1.0  0.19027  0.00024  0.95765  1.0000
  I   I303      1.0  0.31640  0.23382  0.96216  1.0000
  I   I304      1.0  0.10013  0.75164  0.36578  1.0000
  I   I305      1.0  0.78709  0.99989  0.24519  1.0000
  I   I306      1.0  0.53005  0.32098  0.19978  1.0000
  I   I307      1.0  0.52173  0.53018  0.06598  1.0000
  I   I308      1.0  0.37510  0.83151  0.58328  1.0000
  I   I309      1.0  0.37834  0.06421  0.63972  1.0000
  I   I310      1.0  0.65305  0.63630  0.88300  1.0000
  I   I311      1.0  0.51101  0.01751  0.73305  1.0000
  I   I312      1.0  0.08328  0.09953  0.17666  1.0000
  I   I313      1.0  0.76441  0.97866  0.55646  1.0000
  I   I314      1.0  0.61199  0.81883  0.83589  1.0000
  I   I315      1.0  0.36206  0.91969  0.35325  1.0000
  I   I316      1.0  0.16821  0.13562  0.33254  1.0000
  I   I317      1.0  0.71311  0.48770  0.67000  1.0000
  I   I318      1.0  0.91192  0.91409  0.95949  1.0000
  I   I319      1.0  0.60829  0.34809  0.30365  1.0000
  I   I320      1.0  0.73116  0.11706  0.96522  1.0000
  I   I321      1.0  0.78416  0.35186  0.00204  1.0000
  I   I322      1.0  0.40201  0.47966  0.91741  1.0000
  I   I323      1.0  0.73559  0.49333  0.15215  1.0000
  I   I324      1.0  0.69241  0.97864  0.90201  1.0000
  I   I325      1.0  0.04253  0.46899  0.32568  1.0000
  I   I326      1.0  0.58964  0.29598  0.26109  1.0000
  I   I327      1.0  0.94747  0.62531  0.17683  1.0000
  I   I328      1.0  0.28241  0.20571  0.98589  1.0000
  I   I329      1.0  0.48099  0.74212  0.58156  1.0000
  I   I330      1.0  0.86743  0.43098  0.22938  1.0000
  I   I331      1.0  0.37501  0.52906  0.58051  1.0000
  I   I332      1.0  0.59665  0.19304  0.45963  1.0000
  I   I333      1.0  0.91876  0.33864  0.73557  1.0000
  I   I334      1.0  0.64259  0.25173  0.60163  1.0000
  I   I335      1.0  0.48719  0.45386  0.50710  1.0000
  I   I336      1.0  0.26479  0.48874  0.11257  1.0000
  I   I337      1.0  0.23277  0.75586  0.37654  1.0000
  I   I338      1.0  0.02471  0.33370  0.86745  1.0000
  I   I339      1.0  0.49419  0.98437  0.01022  1.0000
  I   I340      1.0  0.94188  0.06061  0.98912  1.0000
  I   I341      1.0  0.75720  0.84579  0.52503  1.0000
  I   I342      1.0  0.15522  0.46426  0.70140  1.0000
  I   I343      1.0  0.85602  0.26233  0.41613  1.0000
  I   I344      1.0  0.35616  0.42117  0.64313  1.0000
  I   I345      1.0  0.32239  0.88907  0.85793  1.0000
  I   I346      1.0  0.59685  0.23811  0.36762  1.0000
  I   I347      1.0  0.10815  0.31827  0.78556  1.0000
  I   I348      1.0  0.15099  0.60255  0.41895  1.0000
  I   I349      1.0  0.61551  0.06653  0.69898  1.0000
  I   I350      1.0  0.19535  0.06777  0.76572  1.0000
  I   I351      1.0  0.05514  0.09776  0.40348  1.0000
  I   I352      1.0  0.06130  0.70712  0.17219  1.0000
  I   I353      1.0  0.01002  0.44180  0.57191  1.0000
  I   I354      1.0  0.51304  0.24938  0.14333  1.0000
  I   I355      1.0  0.61470  0.48717  0.08542  1.0000
  I   I356      1.0  0.02189  0.44943  0.97363  1.0000
  I   I357      1.0  0.44361  0.94766  0.87049  1.0000
  I   I358      1.0  0.28821  0.71786  0.68201  1.0000
  I   I359      1.0  0.55927  0.96579  0.61457  1.0000
  I   I360      1.0  0.03710  0.15880  0.13504  1.0000
  I   I361      1.0  0.78988  0.01091  0.63761  1.0000
  I   I362      1.0  0.64317  0.86142  0.84830  1.0000
  I   I363      1.0  0.39468  0.79732  0.40394  1.0000
  I   I364      1.0  0.25311  0.18977  0.35348  1.0000
  I   I365      1.0  0.68114  0.52342  0.77754  1.0000
  I   I366      1.0  0.88001  0.91115  0.83395  1.0000
  I   I367      1.0  0.64726  0.35388  0.39717  1.0000
  I   I368      1.0  0.74208  0.12919  0.83470  1.0000
  I   I369      1.0  0.74030  0.39662  0.11393  1.0000
  I   I370      1.0  0.43912  0.45550  0.01495  1.0000
  I   I371      1.0  0.61891  0.60941  0.18068  1.0000
  I   I372      1.0  0.72214  0.91877  0.87807  1.0000
  I   I373      1.0  0.11332  0.45919  0.29977  1.0000
  I   I374      1.0  0.59925  0.30654  0.01715  1.0000
  I   I375      1.0  0.97078  0.57771  0.12796  1.0000
  I   I376      1.0  0.53942  0.71841  0.34410  1.0000
  I   I377      1.0  0.50090  0.72941  0.67236  1.0000
  I   I378      1.0  0.82936  0.51034  0.21725  1.0000
  I   I379      1.0  0.26322  0.61149  0.55984  1.0000
  I   I380      1.0  0.03976  0.79351  0.92900  1.0000
  I   I381      1.0  0.93100  0.35510  0.51955  1.0000
  I   I382      1.0  0.56216  0.26821  0.54318  1.0000
  I   I383      1.0  0.46071  0.43184  0.41856  1.0000
  I   I384      1.0  0.19768  0.54430  0.10711  1.0000
