data_image0
_chemical_formula_structural       Ti96I384
_chemical_formula_sum              "Ti96 I384"
_cell_length_a       39.0135
_cell_length_b       38.4113
_cell_length_c       22.196
_cell_angle_alpha    88.7757
_cell_angle_beta     88.7757
_cell_angle_gamma    62.1586

_space_group_name_H-M_alt    "P 1"
_space_group_IT_number       1

loop_
  _space_group_symop_operation_xyz
  'x, y, z'

loop_
  _atom_site_type_symbol
  _atom_site_label
  _atom_site_symmetry_multiplicity
  _atom_site_fract_x
  _atom_site_fract_y
  _atom_site_fract_z
  _atom_site_occupancy
  Ti  Ti1       1.0  0.15844  0.07518  0.15495  1.0000
  Ti  Ti2       1.0  0.17531  0.06585  0.51311  1.0000
  Ti  Ti3       1.0  0.17913  0.08989  0.83697  1.0000
  Ti  Ti4       1.0  0.16035  0.32198  0.30923  1.0000
  Ti  Ti5       1.0  0.16723  0.32188  0.64051  1.0000
  Ti  Ti6       1.0  0.16296  0.29804  0.97110  1.0000
  Ti  Ti7       1.0  0.16303  0.57060  0.31006  1.0000
  Ti  Ti8       1.0  0.15820  0.57837  0.62946  1.0000
  Ti  Ti9       1.0  0.15767  0.58812  0.96354  1.0000
  Ti  Ti10      1.0  0.10847  0.89790  0.22819  1.0000
  Ti  Ti11      1.0  0.10181  0.88997  0.55344  1.0000
  Ti  Ti12      1.0  0.10236  0.90757  0.89786  1.0000
  Ti  Ti13      1.0  0.41946  0.06691  0.24447  1.0000
  Ti  Ti14      1.0  0.43109  0.08747  0.59429  1.0000
  Ti  Ti15      1.0  0.42078  0.07602  0.91741  1.0000
  Ti  Ti16      1.0  0.42813  0.33146  0.30693  1.0000
  Ti  Ti17      1.0  0.44371  0.30790  0.63723  1.0000
  Ti  Ti18      1.0  0.43007  0.31295  0.95615  1.0000
  Ti  Ti19      1.0  0.36372  0.65101  0.27340  1.0000
  Ti  Ti20      1.0  0.35633  0.64846  0.59488  1.0000
  Ti  Ti21      1.0  0.35235  0.64592  0.94114  1.0000
  Ti  Ti22      1.0  0.38951  0.85167  0.17727  1.0000
  Ti  Ti23      1.0  0.39911  0.84940  0.48527  1.0000
  Ti  Ti24      1.0  0.41747  0.82055  0.84239  1.0000
  Ti  Ti25      1.0  0.68523  0.06932  0.33587  1.0000
  Ti  Ti26      1.0  0.68538  0.05673  0.67259  1.0000
  Ti  Ti27      1.0  0.67053  0.07813  0.99939  1.0000
  Ti  Ti28      1.0  0.61749  0.37719  0.27861  1.0000
  Ti  Ti29      1.0  0.61136  0.37691  0.62107  1.0000
  Ti  Ti30      1.0  0.62174  0.38452  0.94816  1.0000
  Ti  Ti31      1.0  0.69182  0.58065  0.17421  1.0000
  Ti  Ti32      1.0  0.67593  0.58683  0.51045  1.0000
  Ti  Ti33      1.0  0.68970  0.59585  0.83992  1.0000
  Ti  Ti34      1.0  0.65707  0.83728  0.27564  1.0000
  Ti  Ti35      1.0  0.67241  0.86244  0.61704  1.0000
  Ti  Ti36      1.0  0.67138  0.83714  0.93453  1.0000
  Ti  Ti37      1.0  0.87082  0.12555  0.21122  1.0000
  Ti  Ti38      1.0  0.86630  0.13778  0.54823  1.0000
  Ti  Ti39      1.0  0.87489  0.13768  0.86782  1.0000
  Ti  Ti40      1.0  0.94449  0.29033  0.18037  1.0000
  Ti  Ti41      1.0  0.94763  0.30803  0.52431  1.0000
  Ti  Ti42      1.0  0.94729  0.30235  0.85698  1.0000
  Ti  Ti43      1.0  0.91012  0.60571  0.23256  1.0000
  Ti  Ti44      1.0  0.91077  0.60656  0.54808  1.0000
  Ti  Ti45      1.0  0.89970  0.59308  0.89536  1.0000
  Ti  Ti46      1.0  0.90339  0.84486  0.29122  1.0000
  Ti  Ti47      1.0  0.92063  0.84335  0.63337  1.0000
  Ti  Ti48      1.0  0.91502  0.83443  0.97589  1.0000
  Ti  Ti49      1.0  0.10360  0.13698  0.99529  1.0000
  Ti  Ti50      1.0  0.10690  0.12102  0.33952  1.0000
  Ti  Ti51      1.0  0.10554  0.13549  0.67533  1.0000
  Ti  Ti52      1.0  0.11017  0.35225  0.13941  1.0000
  Ti  Ti53      1.0  0.10155  0.37864  0.47291  1.0000
  Ti  Ti54      1.0  0.10538  0.37263  0.80314  1.0000
  Ti  Ti55      1.0  0.10458  0.63990  0.14034  1.0000
  Ti  Ti56      1.0  0.10724  0.64465  0.46530  1.0000
  Ti  Ti57      1.0  0.09258  0.65644  0.78633  1.0000
  Ti  Ti58      1.0  0.03274  0.96473  0.06824  1.0000
  Ti  Ti59      1.0  0.02976  0.96198  0.39021  1.0000
  Ti  Ti60      1.0  0.03906  0.95667  0.72817  1.0000
  Ti  Ti61      1.0  0.33740  0.13426  0.09606  1.0000
  Ti  Ti62      1.0  0.36815  0.13194  0.40982  1.0000
  Ti  Ti63      1.0  0.34882  0.14849  0.77182  1.0000
  Ti  Ti64      1.0  0.35970  0.38621  0.12433  1.0000
  Ti  Ti65      1.0  0.37555  0.38877  0.48636  1.0000
  Ti  Ti66      1.0  0.36606  0.37207  0.79603  1.0000
  Ti  Ti67      1.0  0.29733  0.72135  0.10877  1.0000
  Ti  Ti68      1.0  0.28622  0.72072  0.42522  1.0000
  Ti  Ti69      1.0  0.29370  0.70636  0.76506  1.0000
  Ti  Ti70      1.0  0.34338  0.89195  0.00555  1.0000
  Ti  Ti71      1.0  0.33598  0.91894  0.33443  1.0000
  Ti  Ti72      1.0  0.36219  0.89097  0.68333  1.0000
  Ti  Ti73      1.0  0.61405  0.14526  0.17187  1.0000
  Ti  Ti74      1.0  0.62340  0.12152  0.51396  1.0000
  Ti  Ti75      1.0  0.61125  0.14774  0.81769  1.0000
  Ti  Ti76      1.0  0.55430  0.44658  0.11909  1.0000
  Ti  Ti77      1.0  0.54909  0.43064  0.44582  1.0000
  Ti  Ti78      1.0  0.54076  0.44354  0.77451  1.0000
  Ti  Ti79      1.0  0.62912  0.65184  0.01646  1.0000
  Ti  Ti80      1.0  0.61128  0.63635  0.34334  1.0000
  Ti  Ti81      1.0  0.62209  0.66024  0.68020  1.0000
  Ti  Ti82      1.0  0.61141  0.89720  0.11179  1.0000
  Ti  Ti83      1.0  0.60497  0.90335  0.44038  1.0000
  Ti  Ti84      1.0  0.60392  0.90687  0.78738  1.0000
  Ti  Ti85      1.0  0.80296  0.18935  0.05010  1.0000
  Ti  Ti86      1.0  0.80728  0.19462  0.36725  1.0000
  Ti  Ti87      1.0  0.80388  0.19378  0.70652  1.0000
  Ti  Ti88      1.0  0.87196  0.36895  0.01750  1.0000
  Ti  Ti89      1.0  0.88367  0.36382  0.34422  1.0000
  Ti  Ti90      1.0  0.87539  0.36223  0.69136  1.0000
  Ti  Ti91      1.0  0.84759  0.65820  0.06185  1.0000
  Ti  Ti92      1.0  0.85423  0.67200  0.38257  1.0000
  Ti  Ti93      1.0  0.84460  0.66551  0.71165  1.0000
  Ti  Ti94      1.0  0.84336  0.91220  0.13525  1.0000
  Ti  Ti95      1.0  0.86192  0.90142  0.47454  1.0000
  Ti  Ti96      1.0  0.86759  0.90827  0.81659  1.0000
  I   I1        1.0  0.09475  0.08429  0.23708  1.0000
  I   I2        1.0  0.09783  0.09486  0.57169  1.0000
  I   I3        1.0  0.10473  0.10374  0.88484  1.0000
  I   I4        1.0  0.09171  0.34483  0.37392  1.0000
  I   I5        1.0  0.08953  0.34812  0.69817  1.0000
  I   I6        1.0  0.09071  0.32322  0.04096  1.0000
  I   I7        1.0  0.09167  0.60921  0.37666  1.0000
  I   I8        1.0  0.07324  0.62352  0.68774  1.0000
  I   I9        1.0  0.08395  0.61340  0.03999  1.0000
  I   I10       1.0  0.03487  0.91889  0.29508  1.0000
  I   I11       1.0  0.03224  0.91204  0.63559  1.0000
  I   I12       1.0  0.02911  0.92822  0.95746  1.0000
  I   I13       1.0  0.34376  0.10055  0.30945  1.0000
  I   I14       1.0  0.35190  0.10326  0.67612  1.0000
  I   I15       1.0  0.32926  0.09708  0.00111  1.0000
  I   I16       1.0  0.36162  0.35297  0.38773  1.0000
  I   I17       1.0  0.36445  0.32714  0.69528  1.0000
  I   I18       1.0  0.35256  0.34101  0.02524  1.0000
  I   I19       1.0  0.28101  0.67915  0.32929  1.0000
  I   I20       1.0  0.27850  0.67505  0.65499  1.0000
  I   I21       1.0  0.28367  0.68197  0.01926  1.0000
  I   I22       1.0  0.31482  0.88559  0.22924  1.0000
  I   I23       1.0  0.33100  0.87428  0.57255  1.0000
  I   I24       1.0  0.33471  0.85353  0.90115  1.0000
  I   I25       1.0  0.60394  0.10125  0.41233  1.0000
  I   I26       1.0  0.60710  0.10357  0.72693  1.0000
  I   I27       1.0  0.60162  0.11477  0.07204  1.0000
  I   I28       1.0  0.55710  0.37518  0.35071  1.0000
  I   I29       1.0  0.53303  0.40149  0.67490  1.0000
  I   I30       1.0  0.54998  0.40792  0.02544  1.0000
  I   I31       1.0  0.61092  0.60657  0.23491  1.0000
  I   I32       1.0  0.60296  0.62844  0.58021  1.0000
  I   I33       1.0  0.61523  0.62003  0.89638  1.0000
  I   I34       1.0  0.58092  0.87987  0.34875  1.0000
  I   I35       1.0  0.59781  0.87867  0.67904  1.0000
  I   I36       1.0  0.59763  0.86703  0.00690  1.0000
  I   I37       1.0  0.79243  0.15093  0.28052  1.0000
  I   I38       1.0  0.80367  0.14432  0.62364  1.0000
  I   I39       1.0  0.80661  0.15230  0.93456  1.0000
  I   I40       1.0  0.86538  0.32245  0.25537  1.0000
  I   I41       1.0  0.85732  0.34189  0.58383  1.0000
  I   I42       1.0  0.84736  0.35766  0.91670  1.0000
  I   I43       1.0  0.83822  0.63204  0.29036  1.0000
  I   I44       1.0  0.83068  0.63822  0.61027  1.0000
  I   I45       1.0  0.82455  0.63372  0.96342  1.0000
  I   I46       1.0  0.83585  0.88060  0.37225  1.0000
  I   I47       1.0  0.84763  0.88533  0.69886  1.0000
  I   I48       1.0  0.83364  0.88049  0.02843  1.0000
  I   I49       1.0  0.12560  0.15301  0.11152  1.0000
  I   I50       1.0  0.14314  0.13573  0.43281  1.0000
  I   I51       1.0  0.13338  0.16537  0.75958  1.0000
  I   I52       1.0  0.11907  0.39325  0.24353  1.0000
  I   I53       1.0  0.12745  0.39775  0.58445  1.0000
  I   I54       1.0  0.13852  0.37625  0.90841  1.0000
  I   I55       1.0  0.14022  0.64507  0.24794  1.0000
  I   I56       1.0  0.15055  0.64725  0.56664  1.0000
  I   I57       1.0  0.12955  0.66495  0.89763  1.0000
  I   I58       1.0  0.07285  0.97352  0.16060  1.0000
  I   I59       1.0  0.06039  0.97245  0.49626  1.0000
  I   I60       1.0  0.06456  0.97964  0.83055  1.0000
  I   I61       1.0  0.37836  0.14865  0.19206  1.0000
  I   I62       1.0  0.38627  0.15994  0.52041  1.0000
  I   I63       1.0  0.37896  0.15563  0.87464  1.0000
  I   I64       1.0  0.37831  0.40650  0.23583  1.0000
  I   I65       1.0  0.41425  0.39402  0.57805  1.0000
  I   I66       1.0  0.39135  0.39559  0.89641  1.0000
  I   I67       1.0  0.33713  0.72468  0.20987  1.0000
  I   I68       1.0  0.30905  0.73485  0.53062  1.0000
  I   I69       1.0  0.31785  0.72155  0.87262  1.0000
  I   I70       1.0  0.36867  0.92043  0.10771  1.0000
  I   I71       1.0  0.37334  0.93230  0.43323  1.0000
  I   I72       1.0  0.39046  0.89508  0.79307  1.0000
  I   I73       1.0  0.66122  0.14423  0.28331  1.0000
  I   I74       1.0  0.66917  0.12897  0.60852  1.0000
  I   I75       1.0  0.63314  0.16211  0.93806  1.0000
  I   I76       1.0  0.59864  0.45036  0.21742  1.0000
  I   I77       1.0  0.57830  0.44753  0.55033  1.0000
  I   I78       1.0  0.56783  0.46104  0.88276  1.0000
  I   I79       1.0  0.66891  0.65980  0.10672  1.0000
  I   I80       1.0  0.64549  0.65475  0.43546  1.0000
  I   I81       1.0  0.65776  0.67445  0.77544  1.0000
  I   I82       1.0  0.65160  0.90325  0.21146  1.0000
  I   I83       1.0  0.63872  0.92893  0.54642  1.0000
  I   I84       1.0  0.63630  0.91565  0.88623  1.0000
  I   I85       1.0  0.83509  0.20242  0.14267  1.0000
  I   I86       1.0  0.82405  0.21500  0.47999  1.0000
  I   I87       1.0  0.82862  0.21433  0.81029  1.0000
  I   I88       1.0  0.91998  0.36439  0.12085  1.0000
  I   I89       1.0  0.92422  0.37463  0.44652  1.0000
  I   I90       1.0  0.91227  0.37373  0.79735  1.0000
  I   I91       1.0  0.88736  0.67948  0.14710  1.0000
  I   I92       1.0  0.88405  0.68196  0.49039  1.0000
  I   I93       1.0  0.87633  0.66903  0.82611  1.0000
  I   I94       1.0  0.88015  0.92544  0.22597  1.0000
  I   I95       1.0  0.89501  0.92072  0.57419  1.0000
  I   I96       1.0  0.89823  0.91172  0.92001  1.0000
  I   I97       1.0  0.17699  0.12472  0.94994  1.0000
  I   I98       1.0  0.18034  0.08331  0.26908  1.0000
  I   I99       1.0  0.17538  0.11544  0.60576  1.0000
  I   I100      1.0  0.17615  0.33632  0.05818  1.0000
  I   I101      1.0  0.17779  0.34483  0.42125  1.0000
  I   I102      1.0  0.19278  0.33292  0.75034  1.0000
  I   I103      1.0  0.17717  0.60937  0.07683  1.0000
  I   I104      1.0  0.18537  0.59512  0.41218  1.0000
  I   I105      1.0  0.16701  0.61132  0.72921  1.0000
  I   I106      1.0  0.10722  0.94188  0.00205  1.0000
  I   I107      1.0  0.10771  0.93811  0.33772  1.0000
  I   I108      1.0  0.11156  0.92975  0.65402  1.0000
  I   I109      1.0  0.41557  0.10517  0.04355  1.0000
  I   I110      1.0  0.43822  0.10064  0.33680  1.0000
  I   I111      1.0  0.42479  0.12991  0.69691  1.0000
  I   I112      1.0  0.43732  0.35124  0.06052  1.0000
  I   I113      1.0  0.44344  0.36615  0.40530  1.0000
  I   I114      1.0  0.44310  0.33994  0.73963  1.0000
  I   I115      1.0  0.37038  0.69144  0.04704  1.0000
  I   I116      1.0  0.36520  0.68850  0.37879  1.0000
  I   I117      1.0  0.36661  0.68252  0.71078  1.0000
  I   I118      1.0  0.42057  0.85197  0.95196  1.0000
  I   I119      1.0  0.40426  0.89429  0.26308  1.0000
  I   I120      1.0  0.42626  0.86688  0.59461  1.0000
  I   I121      1.0  0.68770  0.10867  0.10265  1.0000
  I   I122      1.0  0.69769  0.09376  0.44080  1.0000
  I   I123      1.0  0.69194  0.09477  0.77265  1.0000
  I   I124      1.0  0.63493  0.41598  0.04727  1.0000
  I   I125      1.0  0.62192  0.41009  0.38033  1.0000
  I   I126      1.0  0.61175  0.42879  0.71397  1.0000
  I   I127      1.0  0.70613  0.62555  0.94661  1.0000
  I   I128      1.0  0.69153  0.61857  0.27620  1.0000
  I   I129      1.0  0.69515  0.62015  0.60056  1.0000
  I   I130      1.0  0.69131  0.85816  0.04927  1.0000
  I   I131      1.0  0.68572  0.86097  0.37802  1.0000
  I   I132      1.0  0.67812  0.89522  0.72766  1.0000
  I   I133      1.0  0.87522  0.17872  0.96948  1.0000
  I   I134      1.0  0.87941  0.16179  0.30795  1.0000
  I   I135      1.0  0.88027  0.16675  0.65319  1.0000
  I   I136      1.0  0.95450  0.33582  0.95938  1.0000
  I   I137      1.0  0.95922  0.32692  0.26925  1.0000
  I   I138      1.0  0.94876  0.34170  0.63031  1.0000
  I   I139      1.0  0.91743  0.62526  0.99087  1.0000
  I   I140      1.0  0.92810  0.64415  0.32406  1.0000
  I   I141      1.0  0.91885  0.64472  0.64680  1.0000
  I   I142      1.0  0.91867  0.87050  0.08489  1.0000
  I   I143      1.0  0.93064  0.86606  0.39737  1.0000
  I   I144      1.0  0.93950  0.87123  0.73519  1.0000
  I   I145      1.0  0.12891  0.06012  0.04046  1.0000
  I   I146      1.0  0.14304  0.04896  0.41043  1.0000
  I   I147      1.0  0.16201  0.06105  0.73742  1.0000
  I   I148      1.0  0.16356  0.28013  0.20246  1.0000
  I   I149      1.0  0.12754  0.31237  0.54556  1.0000
  I   I150      1.0  0.12331  0.29644  0.85757  1.0000
  I   I151      1.0  0.12546  0.56305  0.20113  1.0000
  I   I152      1.0  0.12393  0.56594  0.53191  1.0000
  I   I153      1.0  0.11299  0.58685  0.86328  1.0000
  I   I154      1.0  0.08212  0.88025  0.12796  1.0000
  I   I155      1.0  0.07624  0.87073  0.45563  1.0000
  I   I156      1.0  0.07939  0.88015  0.78993  1.0000
  I   I157      1.0  0.37352  0.05270  0.16476  1.0000
  I   I158      1.0  0.41143  0.05839  0.49704  1.0000
  I   I159      1.0  0.39375  0.06598  0.81694  1.0000
  I   I160      1.0  0.39416  0.31539  0.20685  1.0000
  I   I161      1.0  0.41740  0.30301  0.52673  1.0000
  I   I162      1.0  0.38843  0.30251  0.86895  1.0000
  I   I163      1.0  0.33023  0.64016  0.17502  1.0000
  I   I164      1.0  0.32985  0.63024  0.49316  1.0000
  I   I165      1.0  0.33048  0.62213  0.84693  1.0000
  I   I166      1.0  0.37863  0.81868  0.07181  1.0000
  I   I167      1.0  0.36473  0.83587  0.39467  1.0000
  I   I168      1.0  0.38837  0.80867  0.72874  1.0000
  I   I169      1.0  0.63875  0.06765  0.23855  1.0000
  I   I170      1.0  0.64800  0.04971  0.56945  1.0000
  I   I171      1.0  0.63143  0.07612  0.90083  1.0000
  I   I172      1.0  0.58742  0.36452  0.18236  1.0000
  I   I173      1.0  0.60423  0.35207  0.50632  1.0000
  I   I174      1.0  0.58165  0.37106  0.85317  1.0000
  I   I175      1.0  0.66133  0.57306  0.06580  1.0000
  I   I176      1.0  0.64453  0.56315  0.41073  1.0000
  I   I177      1.0  0.65713  0.58744  0.73668  1.0000
  I   I178      1.0  0.62921  0.82191  0.18223  1.0000
  I   I179      1.0  0.64046  0.83427  0.50882  1.0000
  I   I180      1.0  0.63621  0.82610  0.83165  1.0000
  I   I181      1.0  0.83830  0.10818  0.10177  1.0000
  I   I182      1.0  0.83956  0.12449  0.44295  1.0000
  I   I183      1.0  0.85466  0.11205  0.76698  1.0000
  I   I184      1.0  0.90363  0.28797  0.07790  1.0000
  I   I185      1.0  0.91076  0.29509  0.41727  1.0000
  I   I186      1.0  0.91301  0.28414  0.75479  1.0000
  I   I187      1.0  0.87962  0.59014  0.14130  1.0000
  I   I188      1.0  0.87930  0.59571  0.45106  1.0000
  I   I189      1.0  0.86804  0.58908  0.78477  1.0000
  I   I190      1.0  0.86679  0.83152  0.19664  1.0000
  I   I191      1.0  0.90824  0.82120  0.51750  1.0000
  I   I192      1.0  0.88456  0.83340  0.86906  1.0000
  I   I193      1.0  0.22666  0.05782  0.10396  1.0000
  I   I194      1.0  0.24510  0.05056  0.46467  1.0000
  I   I195      1.0  0.24552  0.08403  0.80425  1.0000
  I   I196      1.0  0.22265  0.32798  0.28703  1.0000
  I   I197      1.0  0.23186  0.29974  0.59133  1.0000
  I   I198      1.0  0.23106  0.27273  0.91399  1.0000
  I   I199      1.0  0.23197  0.54842  0.26108  1.0000
  I   I200      1.0  0.22562  0.54947  0.57933  1.0000
  I   I201      1.0  0.22716  0.57030  0.91484  1.0000
  I   I202      1.0  0.17721  0.88622  0.18633  1.0000
  I   I203      1.0  0.16391  0.89136  0.50754  1.0000
  I   I204      1.0  0.16756  0.89461  0.84200  1.0000
  I   I205      1.0  0.48643  0.04124  0.19329  1.0000
  I   I206      1.0  0.49637  0.08586  0.55402  1.0000
  I   I207      1.0  0.48954  0.07206  0.89632  1.0000
  I   I208      1.0  0.49053  0.31046  0.24287  1.0000
  I   I209      1.0  0.51286  0.29220  0.59132  1.0000
  I   I210      1.0  0.49309  0.30573  0.91389  1.0000
  I   I211      1.0  0.43921  0.62468  0.24309  1.0000
  I   I212      1.0  0.41930  0.65363  0.57339  1.0000
  I   I213      1.0  0.42139  0.62614  0.90456  1.0000
  I   I214      1.0  0.45980  0.82841  0.11980  1.0000
  I   I215      1.0  0.46857  0.83183  0.43347  1.0000
  I   I216      1.0  0.48882  0.79987  0.79569  1.0000
  I   I217      1.0  0.74937  0.05120  0.27484  1.0000
  I   I218      1.0  0.75887  0.02321  0.64341  1.0000
  I   I219      1.0  0.73874  0.05879  0.94536  1.0000
  I   I220      1.0  0.68350  0.36548  0.22208  1.0000
  I   I221      1.0  0.67926  0.37313  0.58261  1.0000
  I   I222      1.0  0.68062  0.38326  0.89340  1.0000
  I   I223      1.0  0.75939  0.56103  0.12172  1.0000
  I   I224      1.0  0.74155  0.56235  0.45132  1.0000
  I   I225      1.0  0.75836  0.58186  0.79922  1.0000
  I   I226      1.0  0.72691  0.80161  0.22930  1.0000
  I   I227      1.0  0.74196  0.84143  0.58876  1.0000
  I   I228      1.0  0.73762  0.81762  0.89227  1.0000
  I   I229      1.0  0.93979  0.10256  0.16598  1.0000
  I   I230      1.0  0.92607  0.14301  0.48597  1.0000
  I   I231      1.0  0.94015  0.13386  0.82553  1.0000
  I   I232      1.0  0.01252  0.26045  0.13012  1.0000
  I   I233      1.0  0.01487  0.28295  0.47621  1.0000
  I   I234      1.0  0.01264  0.27310  0.80261  1.0000
  I   I235      1.0  0.97723  0.58847  0.18608  1.0000
  I   I236      1.0  0.97952  0.58148  0.49407  1.0000
  I   I237      1.0  0.97277  0.56419  0.86801  1.0000
  I   I238      1.0  0.97092  0.82192  0.24300  1.0000
  I   I239      1.0  0.99074  0.82448  0.59825  1.0000
  I   I240      1.0  0.98625  0.81283  0.93291  1.0000
  I   I241      1.0  0.16821  0.99980  0.17723  1.0000
  I   I242      1.0  0.19652  0.00210  0.57195  1.0000
  I   I243      1.0  0.20725  0.01913  0.87791  1.0000
  I   I244      1.0  0.18611  0.25224  0.36472  1.0000
  I   I245      1.0  0.17739  0.25175  0.68785  1.0000
  I   I246      1.0  0.18611  0.22477  0.01278  1.0000
  I   I247      1.0  0.16785  0.50192  0.35271  1.0000
  I   I248      1.0  0.16683  0.51542  0.69329  1.0000
  I   I249      1.0  0.17489  0.52137  0.01496  1.0000
  I   I250      1.0  0.14159  0.82423  0.27185  1.0000
  I   I251      1.0  0.14796  0.81816  0.59647  1.0000
  I   I252      1.0  0.14106  0.83345  0.93998  1.0000
  I   I253      1.0  0.44748  0.99990  0.30912  1.0000
  I   I254      1.0  0.45814  0.02371  0.65106  1.0000
  I   I255      1.0  0.43089  0.00930  0.96400  1.0000
  I   I256      1.0  0.44406  0.25932  0.34394  1.0000
  I   I257      1.0  0.46519  0.23389  0.66590  1.0000
  I   I258      1.0  0.45456  0.24281  0.00315  1.0000
  I   I259      1.0  0.37385  0.58278  0.31738  1.0000
  I   I260      1.0  0.37878  0.58025  0.64464  1.0000
  I   I261      1.0  0.37870  0.57935  0.99899  1.0000
  I   I262      1.0  0.41992  0.77742  0.21793  1.0000
  I   I263      1.0  0.41986  0.77857  0.52678  1.0000
  I   I264      1.0  0.43245  0.74978  0.86770  1.0000
  I   I265      1.0  0.69917  0.99774  0.36171  1.0000
  I   I266      1.0  0.69075  0.99736  0.73142  1.0000
  I   I267      1.0  0.68753  0.00608  0.02755  1.0000
  I   I268      1.0  0.65240  0.29973  0.31818  1.0000
  I   I269      1.0  0.63405  0.31013  0.67830  1.0000
  I   I270      1.0  0.65439  0.31543  0.99265  1.0000
  I   I271      1.0  0.71143  0.51181  0.22134  1.0000
  I   I272      1.0  0.69177  0.52192  0.58114  1.0000
  I   I273      1.0  0.71407  0.52842  0.88734  1.0000
  I   I274      1.0  0.66291  0.77739  0.34914  1.0000
  I   I275      1.0  0.69448  0.79064  0.66113  1.0000
  I   I276      1.0  0.67754  0.76790  0.97577  1.0000
  I   I277      1.0  0.88786  0.05486  0.24705  1.0000
  I   I278      1.0  0.90826  0.06174  0.57334  1.0000
  I   I279      1.0  0.90928  0.07096  0.92837  1.0000
  I   I280      1.0  0.94895  0.22435  0.23007  1.0000
  I   I281      1.0  0.95675  0.24042  0.56634  1.0000
  I   I282      1.0  0.94943  0.23804  0.90001  1.0000
  I   I283      1.0  0.93509  0.54037  0.29556  1.0000
  I   I284      1.0  0.92735  0.54301  0.60973  1.0000
  I   I285      1.0  0.90923  0.52852  0.94835  1.0000
  I   I286      1.0  0.92953  0.77331  0.34128  1.0000
  I   I287      1.0  0.92650  0.77499  0.67445  1.0000
  I   I288      1.0  0.92953  0.76684  0.01575  1.0000
  I   I289      1.0  0.03287  0.14282  0.00046  1.0000
  I   I290      1.0  0.03932  0.12879  0.37932  1.0000
  I   I291      1.0  0.04396  0.13225  0.72199  1.0000
  I   I292      1.0  0.06081  0.33987  0.20111  1.0000
  I   I293      1.0  0.02951  0.41022  0.51678  1.0000
  I   I294      1.0  0.03406  0.40973  0.83779  1.0000
  I   I295      1.0  0.03713  0.65082  0.18418  1.0000
  I   I296      1.0  0.03742  0.67986  0.51628  1.0000
  I   I297      1.0  0.02232  0.68586  0.82876  1.0000
  I   I298      1.0  0.97019  0.97526  0.11362  1.0000
  I   I299      1.0  0.96663  0.96448  0.44172  1.0000
  I   I300      1.0  0.98017  0.95882  0.78834  1.0000
  I   I301      1.0  0.27137  0.14184  0.14445  1.0000
  I   I302      1.0  0.29956  0.14803  0.44950  1.0000
  I   I303      1.0  0.28204  0.16008  0.82383  1.0000
  I   I304      1.0  0.29395  0.38986  0.15543  1.0000
  I   I305      1.0  0.31689  0.40032  0.55587  1.0000
  I   I306      1.0  0.29653  0.38832  0.83008  1.0000
  I   I307      1.0  0.23493  0.74228  0.17890  1.0000
  I   I308      1.0  0.21757  0.74243  0.47583  1.0000
  I   I309      1.0  0.22940  0.70948  0.79105  1.0000
  I   I310      1.0  0.27339  0.91401  0.03212  1.0000
  I   I311      1.0  0.27328  0.93651  0.39486  1.0000
  I   I312      1.0  0.29179  0.90311  0.70878  1.0000
  I   I313      1.0  0.54809  0.17843  0.22824  1.0000
  I   I314      1.0  0.55675  0.15392  0.56834  1.0000
  I   I315      1.0  0.53739  0.18346  0.82732  1.0000
  I   I316      1.0  0.48795  0.45780  0.17566  1.0000
  I   I317      1.0  0.48145  0.43726  0.47913  1.0000
  I   I318      1.0  0.48059  0.44643  0.82736  1.0000
  I   I319      1.0  0.56334  0.66862  0.07578  1.0000
  I   I320      1.0  0.54460  0.64999  0.38021  1.0000
  I   I321      1.0  0.55497  0.67794  0.73629  1.0000
  I   I322      1.0  0.54384  0.91952  0.16035  1.0000
  I   I323      1.0  0.53885  0.92965  0.50582  1.0000
  I   I324      1.0  0.54046  0.90880  0.83998  1.0000
  I   I325      1.0  0.73973  0.19690  0.09543  1.0000
  I   I326      1.0  0.73638  0.21035  0.40965  1.0000
  I   I327      1.0  0.73785  0.20874  0.76499  1.0000
  I   I328      1.0  0.80731  0.39206  0.07990  1.0000
  I   I329      1.0  0.81323  0.38690  0.38781  1.0000
  I   I330      1.0  0.80753  0.38573  0.74679  1.0000
  I   I331      1.0  0.78131  0.67106  0.11640  1.0000
  I   I332      1.0  0.78654  0.69988  0.43822  1.0000
  I   I333      1.0  0.77742  0.69017  0.76324  1.0000
  I   I334      1.0  0.77375  0.93942  0.18849  1.0000
  I   I335      1.0  0.80324  0.91140  0.54287  1.0000
  I   I336      1.0  0.79438  0.93672  0.84452  1.0000
  I   I337      1.0  0.07571  0.20962  0.94902  1.0000
  I   I338      1.0  0.08009  0.18716  0.27495  1.0000
  I   I339      1.0  0.06961  0.20439  0.63241  1.0000
  I   I340      1.0  0.06782  0.42267  0.09837  1.0000
  I   I341      1.0  0.09766  0.44458  0.42217  1.0000
  I   I342      1.0  0.11058  0.43073  0.74763  1.0000
  I   I343      1.0  0.08650  0.70858  0.09011  1.0000
  I   I344      1.0  0.10403  0.71349  0.42368  1.0000
  I   I345      1.0  0.08772  0.72130  0.74538  1.0000
  I   I346      1.0  0.01135  0.03528  0.02262  1.0000
  I   I347      1.0  0.00278  0.02808  0.33654  1.0000
  I   I348      1.0  0.00547  0.02852  0.68379  1.0000
  I   I349      1.0  0.31195  0.20645  0.05450  1.0000
  I   I350      1.0  0.35565  0.19797  0.35638  1.0000
  I   I351      1.0  0.32662  0.21601  0.72305  1.0000
  I   I352      1.0  0.34115  0.45721  0.07459  1.0000
  I   I353      1.0  0.36078  0.45515  0.43297  1.0000
  I   I354      1.0  0.34897  0.43971  0.73950  1.0000
  I   I355      1.0  0.27656  0.78773  0.06457  1.0000
  I   I356      1.0  0.27459  0.78948  0.38866  1.0000
  I   I357      1.0  0.26785  0.77879  0.71635  1.0000
  I   I358      1.0  0.33067  0.95386  0.94097  1.0000
  I   I359      1.0  0.31577  0.98887  0.28645  1.0000
  I   I360      1.0  0.34204  0.96526  0.65897  1.0000
  I   I361      1.0  0.61445  0.21022  0.13026  1.0000
  I   I362      1.0  0.61456  0.19232  0.47736  1.0000
  I   I363      1.0  0.62152  0.20405  0.76661  1.0000
  I   I364      1.0  0.53603  0.51819  0.08654  1.0000
  I   I365      1.0  0.52026  0.49892  0.39158  1.0000
  I   I366      1.0  0.51117  0.51162  0.72637  1.0000
  I   I367      1.0  0.60217  0.71497  0.94654  1.0000
  I   I368      1.0  0.58336  0.70866  0.30166  1.0000
  I   I369      1.0  0.60881  0.72546  0.61811  1.0000
  I   I370      1.0  0.59690  0.96412  0.06252  1.0000
  I   I371      1.0  0.60735  0.96280  0.38732  1.0000
  I   I372      1.0  0.57494  0.97965  0.74553  1.0000
  I   I373      1.0  0.77349  0.26067  0.00803  1.0000
  I   I374      1.0  0.79145  0.26330  0.32037  1.0000
  I   I375      1.0  0.77902  0.25940  0.64392  1.0000
  I   I376      1.0  0.85967  0.44057  0.98966  1.0000
  I   I377      1.0  0.86880  0.42945  0.29345  1.0000
  I   I378      1.0  0.85863  0.43589  0.66450  1.0000
  I   I379      1.0  0.80917  0.73016  0.01261  1.0000
  I   I380      1.0  0.84344  0.73862  0.33972  1.0000
  I   I381      1.0  0.83038  0.73469  0.67407  1.0000
  I   I382      1.0  0.82048  0.98602  0.09390  1.0000
  I   I383      1.0  0.83928  0.97766  0.45211  1.0000
  I   I384      1.0  0.85267  0.97653  0.77173  1.0000
