data_image0
_chemical_formula_structural       Ti96I384
_chemical_formula_sum              "Ti96 I384"
_cell_length_a       53.7698
_cell_length_b       53.8786
_cell_length_c       26.0361
_cell_angle_alpha    88.7757
_cell_angle_beta     88.7757
_cell_angle_gamma    62.1586

_space_group_name_H-M_alt    "P 1"
_space_group_IT_number       1

loop_
  _space_group_symop_operation_xyz
  'x, y, z'

loop_
  _atom_site_type_symbol
  _atom_site_label
  _atom_site_symmetry_multiplicity
  _atom_site_fract_x
  _atom_site_fract_y
  _atom_site_fract_z
  _atom_site_occupancy
  Ti  Ti1       1.0  0.61775  0.68389  0.35054  1.0000
  Ti  Ti2       1.0  0.91743  0.11542  0.33874  1.0000
  Ti  Ti3       1.0  0.51525  0.82522  0.28020  1.0000
  Ti  Ti4       1.0  0.20025  0.01271  0.63955  1.0000
  Ti  Ti5       1.0  0.10873  0.21339  0.37180  1.0000
  Ti  Ti6       1.0  0.06306  0.26155  0.86753  1.0000
  Ti  Ti7       1.0  0.05292  0.86664  0.25973  1.0000
  Ti  Ti8       1.0  0.96391  0.07183  0.68533  1.0000
  Ti  Ti9       1.0  0.93394  0.86028  0.57317  1.0000
  Ti  Ti10      1.0  0.31099  0.87631  0.95304  1.0000
  Ti  Ti11      1.0  0.03067  0.61907  0.82315  1.0000
  Ti  Ti12      1.0  0.96414  0.61690  0.99730  1.0000
  Ti  Ti13      1.0  0.40865  0.22983  0.37633  1.0000
  Ti  Ti14      1.0  0.30650  0.14975  0.47331  1.0000
  Ti  Ti15      1.0  0.36112  0.06348  0.09387  1.0000
  Ti  Ti16      1.0  0.14309  0.75167  0.94959  1.0000
  Ti  Ti17      1.0  0.21462  0.65683  0.17122  1.0000
  Ti  Ti18      1.0  0.18856  0.47283  0.36448  1.0000
  Ti  Ti19      1.0  0.54401  0.64830  0.63546  1.0000
  Ti  Ti20      1.0  0.72029  0.86124  0.87594  1.0000
  Ti  Ti21      1.0  0.21806  0.64573  0.71059  1.0000
  Ti  Ti22      1.0  0.46432  0.89925  0.63847  1.0000
  Ti  Ti23      1.0  0.78532  0.86223  0.25941  1.0000
  Ti  Ti24      1.0  0.47384  0.02797  0.71547  1.0000
  Ti  Ti25      1.0  0.28384  0.22713  0.88618  1.0000
  Ti  Ti26      1.0  0.35642  0.32320  0.97789  1.0000
  Ti  Ti27      1.0  0.36213  0.60533  0.75638  1.0000
  Ti  Ti28      1.0  0.47832  0.65223  0.01473  1.0000
  Ti  Ti29      1.0  0.66993  0.39988  0.90460  1.0000
  Ti  Ti30      1.0  0.74954  0.47436  0.80913  1.0000
  Ti  Ti31      1.0  0.90364  0.41621  0.32217  1.0000
  Ti  Ti32      1.0  0.82268  0.30597  0.63974  1.0000
  Ti  Ti33      1.0  0.94015  0.47170  0.91004  1.0000
  Ti  Ti34      1.0  0.97349  0.84936  0.99738  1.0000
  Ti  Ti35      1.0  0.72775  0.66190  0.02382  1.0000
  Ti  Ti36      1.0  0.81592  0.67587  0.65584  1.0000
  Ti  Ti37      1.0  0.61415  0.23089  0.21135  1.0000
  Ti  Ti38      1.0  0.52218  0.30887  0.45200  1.0000
  Ti  Ti39      1.0  0.54469  0.35777  0.90759  1.0000
  Ti  Ti40      1.0  0.10647  0.97419  0.88813  1.0000
  Ti  Ti41      1.0  0.72511  0.16453  0.63768  1.0000
  Ti  Ti42      1.0  0.14618  0.90175  0.43875  1.0000
  Ti  Ti43      1.0  0.81423  0.24818  0.07106  1.0000
  Ti  Ti44      1.0  0.98728  0.42464  0.52480  1.0000
  Ti  Ti45      1.0  0.00934  0.54120  0.58114  1.0000
  Ti  Ti46      1.0  0.65708  0.01201  0.58106  1.0000
  Ti  Ti47      1.0  0.59089  0.02405  0.08239  1.0000
  Ti  Ti48      1.0  0.62318  0.15090  0.83107  1.0000
  Ti  Ti49      1.0  0.59629  0.76221  0.39619  1.0000
  Ti  Ti50      1.0  0.84872  0.09313  0.33620  1.0000
  Ti  Ti51      1.0  0.97606  0.10323  0.21560  1.0000
  Ti  Ti52      1.0  0.26821  0.95953  0.58086  1.0000
  Ti  Ti53      1.0  0.08409  0.28035  0.40475  1.0000
  Ti  Ti54      1.0  0.05193  0.22067  0.76189  1.0000
  Ti  Ti55      1.0  0.98110  0.93955  0.29027  1.0000
  Ti  Ti56      1.0  0.99013  0.11168  0.57766  1.0000
  Ti  Ti57      1.0  0.94704  0.88082  0.70449  1.0000
  Ti  Ti58      1.0  0.30036  0.88888  0.10183  1.0000
  Ti  Ti59      1.0  0.25129  0.89593  0.84442  1.0000
  Ti  Ti60      1.0  0.95864  0.67800  0.89136  1.0000
  Ti  Ti61      1.0  0.28683  0.10294  0.11848  1.0000
  Ti  Ti62      1.0  0.43598  0.19796  0.26963  1.0000
  Ti  Ti63      1.0  0.26668  0.12651  0.45889  1.0000
  Ti  Ti64      1.0  0.16421  0.41823  0.33950  1.0000
  Ti  Ti65      1.0  0.16592  0.69265  0.04881  1.0000
  Ti  Ti66      1.0  0.10367  0.74008  0.47370  1.0000
  Ti  Ti67      1.0  0.60278  0.67908  0.65408  1.0000
  Ti  Ti68      1.0  0.76798  0.82296  0.76275  1.0000
  Ti  Ti69      1.0  0.16136  0.61948  0.75003  1.0000
  Ti  Ti70      1.0  0.48480  0.96952  0.57858  1.0000
  Ti  Ti71      1.0  0.82782  0.80000  0.14252  1.0000
  Ti  Ti72      1.0  0.76432  0.85643  0.40834  1.0000
  Ti  Ti73      1.0  0.40182  0.54914  0.71701  1.0000
  Ti  Ti74      1.0  0.31338  0.28896  0.88945  1.0000
  Ti  Ti75      1.0  0.33528  0.40708  0.93199  1.0000
  Ti  Ti76      1.0  0.77602  0.51878  0.74964  1.0000
  Ti  Ti77      1.0  0.53693  0.64083  0.05187  1.0000
  Ti  Ti78      1.0  0.68542  0.45729  0.88037  1.0000
  Ti  Ti79      1.0  0.93519  0.41599  0.81227  1.0000
  Ti  Ti80      1.0  0.88945  0.36277  0.29630  1.0000
  Ti  Ti81      1.0  0.86983  0.33837  0.66688  1.0000
  Ti  Ti82      1.0  0.93727  0.93999  0.01467  1.0000
  Ti  Ti83      1.0  0.66676  0.67292  0.02210  1.0000
  Ti  Ti84      1.0  0.82796  0.68349  0.51692  1.0000
  Ti  Ti85      1.0  0.67433  0.15454  0.16268  1.0000
  Ti  Ti86      1.0  0.52879  0.27336  0.30835  1.0000
  Ti  Ti87      1.0  0.54094  0.37563  0.07433  1.0000
  Ti  Ti88      1.0  0.12056  0.94898  0.00968  1.0000
  Ti  Ti89      1.0  0.70468  0.20709  0.48704  1.0000
  Ti  Ti90      1.0  0.21735  0.83728  0.35335  1.0000
  Ti  Ti91      1.0  0.09560  0.49927  0.63918  1.0000
  Ti  Ti92      1.0  0.87922  0.21499  0.09227  1.0000
  Ti  Ti93      1.0  0.96170  0.50682  0.47853  1.0000
  Ti  Ti94      1.0  0.57981  0.14868  0.72387  1.0000
  Ti  Ti95      1.0  0.71888  0.00370  0.54342  1.0000
  Ti  Ti96      1.0  0.57599  0.99717  0.98624  1.0000
  I   I1        1.0  0.83927  0.05005  0.34575  1.0000
  I   I2        1.0  0.91919  0.15453  0.39219  1.0000
  I   I3        1.0  0.62121  0.78185  0.45768  1.0000
  I   I4        1.0  0.09667  0.31879  0.39261  1.0000
  I   I5        1.0  0.09378  0.17215  0.73494  1.0000
  I   I6        1.0  0.08612  0.23084  0.95086  1.0000
  I   I7        1.0  0.98992  0.07331  0.51093  1.0000
  I   I8        1.0  0.92646  0.06042  0.64565  1.0000
  I   I9        1.0  0.88855  0.88458  0.51578  1.0000
  I   I10       1.0  0.29729  0.84055  0.88761  1.0000
  I   I11       1.0  0.00281  0.68488  0.84288  1.0000
  I   I12       1.0  0.34994  0.85831  0.14052  1.0000
  I   I13       1.0  0.43351  0.17014  0.36354  1.0000
  I   I14       1.0  0.31442  0.10723  0.39354  1.0000
  I   I15       1.0  0.31674  0.09855  0.01701  1.0000
  I   I16       1.0  0.11029  0.70864  0.01889  1.0000
  I   I17       1.0  0.14352  0.75057  0.51183  1.0000
  I   I18       1.0  0.14974  0.47847  0.28812  1.0000
  I   I19       1.0  0.73443  0.80835  0.82168  1.0000
  I   I20       1.0  0.18186  0.64984  0.80490  1.0000
  I   I21       1.0  0.25691  0.62735  0.78206  1.0000
  I   I22       1.0  0.87916  0.78560  0.16856  1.0000
  I   I23       1.0  0.82422  0.79826  0.26029  1.0000
  I   I24       1.0  0.50698  0.99983  0.61727  1.0000
  I   I25       1.0  0.26511  0.29738  0.85570  1.0000
  I   I26       1.0  0.33340  0.36094  0.89445  1.0000
  I   I27       1.0  0.39873  0.60376  0.68508  1.0000
  I   I28       1.0  0.54899  0.59300  0.00940  1.0000
  I   I29       1.0  0.68894  0.43072  0.96904  1.0000
  I   I30       1.0  0.73117  0.53037  0.82029  1.0000
  I   I31       1.0  0.95052  0.38946  0.36950  1.0000
  I   I32       1.0  0.80794  0.35645  0.67635  1.0000
  I   I33       1.0  0.97556  0.42596  0.78095  1.0000
  I   I34       1.0  0.70172  0.65245  0.11285  1.0000
  I   I35       1.0  0.79833  0.65850  0.57036  1.0000
  I   I36       1.0  0.97790  0.95370  0.02071  1.0000
  I   I37       1.0  0.59823  0.23124  0.31703  1.0000
  I   I38       1.0  0.54613  0.42038  0.06016  1.0000
  I   I39       1.0  0.71842  0.10795  0.17745  1.0000
  I   I40       1.0  0.71087  0.25326  0.47929  1.0000
  I   I41       1.0  0.22468  0.78529  0.38541  1.0000
  I   I42       1.0  0.17360  0.92952  0.03875  1.0000
  I   I43       1.0  0.87146  0.17169  0.07306  1.0000
  I   I44       1.0  0.93666  0.47464  0.49514  1.0000
  I   I45       1.0  0.97250  0.59442  0.57167  1.0000
  I   I46       1.0  0.67133  0.99923  0.47159  1.0000
  I   I47       1.0  0.59628  0.96995  0.09216  1.0000
  I   I48       1.0  0.62209  0.19755  0.78807  1.0000
  I   I49       1.0  0.57160  0.68579  0.36853  1.0000
  I   I50       1.0  0.85853  0.14313  0.34375  1.0000
  I   I51       1.0  0.02149  0.06784  0.16305  1.0000
  I   I52       1.0  0.26205  0.99520  0.65649  1.0000
  I   I53       1.0  0.08387  0.19654  0.43386  1.0000
  I   I54       1.0  0.01822  0.21499  0.82976  1.0000
  I   I55       1.0  0.98838  0.97429  0.21805  1.0000
  I   I56       1.0  0.96266  0.15823  0.52825  1.0000
  I   I57       1.0  0.97614  0.87615  0.58227  1.0000
  I   I58       1.0  0.31302  0.89269  0.85724  1.0000
  I   I59       1.0  0.25232  0.86584  0.77182  1.0000
  I   I60       1.0  0.93420  0.63919  0.90177  1.0000
  I   I61       1.0  0.37847  0.28642  0.39038  1.0000
  I   I62       1.0  0.49143  0.16983  0.27133  1.0000
  I   I63       1.0  0.34062  0.15532  0.41513  1.0000
  I   I64       1.0  0.17355  0.77362  0.91532  1.0000
  I   I65       1.0  0.22513  0.67543  0.07672  1.0000
  I   I66       1.0  0.11457  0.73439  0.37804  1.0000
  I   I67       1.0  0.58263  0.72963  0.68635  1.0000
  I   I68       1.0  0.68627  0.84856  0.92831  1.0000
  I   I69       1.0  0.16780  0.64932  0.66459  1.0000
  I   I70       1.0  0.46052  0.93229  0.55767  1.0000
  I   I71       1.0  0.78093  0.85117  0.15836  1.0000
  I   I72       1.0  0.79432  0.83144  0.49325  1.0000
  I   I73       1.0  0.35824  0.63552  0.83795  1.0000
  I   I74       1.0  0.37058  0.27098  0.92284  1.0000
  I   I75       1.0  0.34870  0.43942  0.98625  1.0000
  I   I76       1.0  0.51168  0.65988  0.94769  1.0000
  I   I77       1.0  0.58138  0.64469  0.01817  1.0000
  I   I78       1.0  0.69560  0.48139  0.79281  1.0000
  I   I79       1.0  0.94983  0.36377  0.81184  1.0000
  I   I80       1.0  0.85219  0.34932  0.25840  1.0000
  I   I81       1.0  0.85993  0.32572  0.56457  1.0000
  I   I82       1.0  0.01241  0.80911  0.95110  1.0000
  I   I83       1.0  0.72683  0.70868  0.05343  1.0000
  I   I84       1.0  0.88225  0.65494  0.52928  1.0000
  I   I85       1.0  0.60605  0.18437  0.19903  1.0000
  I   I86       1.0  0.48715  0.31754  0.26490  1.0000
  I   I87       1.0  0.49832  0.40112  0.13755  1.0000
  I   I88       1.0  0.10348  0.95824  0.79932  1.0000
  I   I89       1.0  0.75797  0.12031  0.69071  1.0000
  I   I90       1.0  0.15050  0.88239  0.53118  1.0000
  I   I91       1.0  0.10418  0.45290  0.68640  1.0000
  I   I92       1.0  0.81568  0.24741  0.17297  1.0000
  I   I93       1.0  0.99491  0.53803  0.47198  1.0000
  I   I94       1.0  0.54478  0.12973  0.70414  1.0000
  I   I95       1.0  0.75374  0.99911  0.61712  1.0000
  I   I96       1.0  0.53396  0.02675  0.92064  1.0000
  I   I97       1.0  0.49813  0.84911  0.37170  1.0000
  I   I98       1.0  0.64367  0.66825  0.25082  1.0000
  I   I99       1.0  0.91598  0.13383  0.23347  1.0000
  I   I100      1.0  0.31905  0.92193  0.61416  1.0000
  I   I101      1.0  0.19317  0.05500  0.59163  1.0000
  I   I102      1.0  0.14080  0.16514  0.33195  1.0000
  I   I103      1.0  0.93674  0.93997  0.25745  1.0000
  I   I104      1.0  0.07521  0.81693  0.31105  1.0000
  I   I105      1.0  0.00006  0.83795  0.71623  1.0000
  I   I106      1.0  0.92862  0.60640  0.04931  1.0000
  I   I107      1.0  0.25678  0.92341  0.93432  1.0000
  I   I108      1.0  0.97656  0.63981  0.80689  1.0000
  I   I109      1.0  0.28452  0.05802  0.15335  1.0000
  I   I110      1.0  0.40130  0.21141  0.46835  1.0000
  I   I111      1.0  0.28736  0.19550  0.52819  1.0000
  I   I112      1.0  0.21805  0.40214  0.29860  1.0000
  I   I113      1.0  0.18801  0.69646  0.95926  1.0000
  I   I114      1.0  0.22446  0.69188  0.22206  1.0000
  I   I115      1.0  0.60586  0.62633  0.62212  1.0000
  I   I116      1.0  0.62766  0.65154  0.73576  1.0000
  I   I117      1.0  0.76409  0.82836  0.93129  1.0000
  I   I118      1.0  0.44383  0.99789  0.67910  1.0000
  I   I119      1.0  0.50322  0.84781  0.62751  1.0000
  I   I120      1.0  0.73155  0.86399  0.31683  1.0000
  I   I121      1.0  0.34210  0.58020  0.81688  1.0000
  I   I122      1.0  0.30988  0.24614  0.95940  1.0000
  I   I123      1.0  0.40369  0.32716  0.96124  1.0000
  I   I124      1.0  0.75481  0.48087  0.70584  1.0000
  I   I125      1.0  0.46776  0.61906  0.95537  1.0000
  I   I126      1.0  0.71534  0.40067  0.84447  1.0000
  I   I127      1.0  0.93159  0.42405  0.92136  1.0000
  I   I128      1.0  0.88616  0.38328  0.39571  1.0000
  I   I129      1.0  0.78773  0.29411  0.69488  1.0000
  I   I130      1.0  0.86037  0.68239  0.66486  1.0000
  I   I131      1.0  0.95713  0.90161  0.92391  1.0000
  I   I132      1.0  0.63504  0.65854  0.08154  1.0000
  I   I133      1.0  0.57991  0.34430  0.13449  1.0000
  I   I134      1.0  0.55637  0.26824  0.20686  1.0000
  I   I135      1.0  0.48067  0.35847  0.42114  1.0000
  I   I136      1.0  0.09052  0.92654  0.43236  1.0000
  I   I137      1.0  0.11011  0.99708  0.04769  1.0000
  I   I138      1.0  0.76437  0.17434  0.60631  1.0000
  I   I139      1.0  0.05679  0.54884  0.58485  1.0000
  I   I140      1.0  0.90014  0.20475  0.18433  1.0000
  I   I141      1.0  0.01321  0.45396  0.48381  1.0000
  I   I142      1.0  0.66818  0.12858  0.88808  1.0000
  I   I143      1.0  0.70908  0.96333  0.59716  1.0000
  I   I144      1.0  0.58024  0.05345  0.99131  1.0000
  I   I145      1.0  0.54862  0.76894  0.43298  1.0000
  I   I146      1.0  0.92005  0.08894  0.43239  1.0000
  I   I147      1.0  0.52008  0.85371  0.19968  1.0000
  I   I148      1.0  0.28313  0.98205  0.50138  1.0000
  I   I149      1.0  0.03924  0.29811  0.35167  1.0000
  I   I150      1.0  0.03724  0.27460  0.77296  1.0000
  I   I151      1.0  0.00620  0.89612  0.20997  1.0000
  I   I152      1.0  0.94642  0.10284  0.77132  1.0000
  I   I153      1.0  0.89844  0.90707  0.64045  1.0000
  I   I154      1.0  0.36487  0.84888  0.96298  1.0000
  I   I155      1.0  0.07423  0.60952  0.87776  1.0000
  I   I156      1.0  0.92016  0.71477  0.83385  1.0000
  I   I157      1.0  0.23880  0.12106  0.07397  1.0000
  I   I158      1.0  0.25526  0.17722  0.40630  1.0000
  I   I159      1.0  0.39369  0.06175  0.02161  1.0000
  I   I160      1.0  0.23161  0.47764  0.31224  1.0000
  I   I161      1.0  0.19045  0.63635  0.05705  1.0000
  I   I162      1.0  0.23493  0.45186  0.42065  1.0000
  I   I163      1.0  0.55134  0.69126  0.60163  1.0000
  I   I164      1.0  0.77446  0.80177  0.67179  1.0000
  I   I165      1.0  0.25416  0.61721  0.64215  1.0000
  I   I166      1.0  0.50300  0.92577  0.65287  1.0000
  I   I167      1.0  0.82689  0.87023  0.20870  1.0000
  I   I168      1.0  0.45536  0.08227  0.69575  1.0000
  I   I169      1.0  0.23957  0.24597  0.94791  1.0000
  I   I170      1.0  0.30365  0.32725  0.96843  1.0000
  I   I171      1.0  0.41697  0.57403  0.80714  1.0000
  I   I172      1.0  0.82592  0.49299  0.70820  1.0000
  I   I173      1.0  0.70296  0.34970  0.95344  1.0000
  I   I174      1.0  0.73535  0.46537  0.90970  1.0000
  I   I175      1.0  0.93096  0.42507  0.24468  1.0000
  I   I176      1.0  0.85296  0.37728  0.73882  1.0000
  I   I177      1.0  0.99486  0.45077  0.91996  1.0000
  I   I178      1.0  0.95841  0.89115  0.06560  1.0000
  I   I179      1.0  0.71392  0.68189  0.92723  1.0000
  I   I180      1.0  0.77446  0.69874  0.72237  1.0000
  I   I181      1.0  0.67347  0.19081  0.23488  1.0000
  I   I182      1.0  0.55226  0.30081  0.35283  1.0000
  I   I183      1.0  0.50128  0.35716  0.86919  1.0000
  I   I184      1.0  0.06499  0.02892  0.87416  1.0000
  I   I185      1.0  0.69831  0.18777  0.72235  1.0000
  I   I186      1.0  0.27212  0.80998  0.33015  1.0000
  I   I187      1.0  0.84941  0.23510  0.98591  1.0000
  I   I188      1.0  0.00731  0.42984  0.60461  1.0000
  I   I189      1.0  0.97228  0.52025  0.58314  1.0000
  I   I190      1.0  0.61984  0.05934  0.53780  1.0000
  I   I191      1.0  0.56381  0.05777  0.15892  1.0000
  I   I192      1.0  0.58270  0.12589  0.82043  1.0000
  I   I193      1.0  0.65374  0.63118  0.37079  1.0000
  I   I194      1.0  0.90321  0.06975  0.30143  1.0000
  I   I195      1.0  0.54313  0.77077  0.26846  1.0000
  I   I196      1.0  0.19817  0.02157  0.73678  1.0000
  I   I197      1.0  0.13018  0.22470  0.46457  1.0000
  I   I198      1.0  0.01238  0.28321  0.91227  1.0000
  I   I199      1.0  0.07754  0.89281  0.30194  1.0000
  I   I200      1.0  0.04041  0.10524  0.54057  1.0000
  I   I201      1.0  0.93275  0.81977  0.62991  1.0000
  I   I202      1.0  0.31311  0.92054  0.02527  1.0000
  I   I203      1.0  0.04804  0.56508  0.84890  1.0000
  I   I204      1.0  0.99973  0.60662  0.06621  1.0000
  I   I205      1.0  0.45660  0.23070  0.37583  1.0000
  I   I206      1.0  0.32126  0.11547  0.55597  1.0000
  I   I207      1.0  0.39930  0.03693  0.16041  1.0000
  I   I208      1.0  0.13646  0.73680  0.85102  1.0000
  I   I209      1.0  0.26083  0.61295  0.16810  1.0000
  I   I210      1.0  0.16573  0.51792  0.41629  1.0000
  I   I211      1.0  0.53080  0.61610  0.57579  1.0000
  I   I212      1.0  0.71185  0.87255  0.77463  1.0000
  I   I213      1.0  0.20778  0.58182  0.70490  1.0000
  I   I214      1.0  0.41789  0.90301  0.59882  1.0000
  I   I215      1.0  0.74877  0.91757  0.23219  1.0000
  I   I216      1.0  0.44183  0.04245  0.80089  1.0000
  I   I217      1.0  0.26187  0.21857  0.80874  1.0000
  I   I218      1.0  0.36323  0.30577  0.07314  1.0000
  I   I219      1.0  0.44346  0.52685  0.65109  1.0000
  I   I220      1.0  0.43188  0.69883  0.00812  1.0000
  I   I221      1.0  0.61633  0.42142  0.94104  1.0000
  I   I222      1.0  0.77954  0.41982  0.80607  1.0000
  I   I223      1.0  0.84882  0.42705  0.27834  1.0000
  I   I224      1.0  0.86532  0.25619  0.63208  1.0000
  I   I225      1.0  0.93547  0.51094  0.85014  1.0000
  I   I226      1.0  0.93211  0.84893  0.96085  1.0000
  I   I227      1.0  0.77883  0.62011  0.03678  1.0000
  I   I228      1.0  0.79021  0.72705  0.58780  1.0000
  I   I229      1.0  0.62244  0.24703  0.12225  1.0000
  I   I230      1.0  0.55626  0.31769  0.50406  1.0000
  I   I231      1.0  0.50105  0.39620  0.98943  1.0000
  I   I232      1.0  0.14064  0.99822  0.89867  1.0000
  I   I233      1.0  0.65650  0.22649  0.44446  1.0000
  I   I234      1.0  0.20773  0.87419  0.27278  1.0000
  I   I235      1.0  0.78697  0.21758  0.07278  1.0000
  I   I236      1.0  0.94693  0.41319  0.57299  1.0000
  I   I237      1.0  0.05625  0.48635  0.58086  1.0000
  I   I238      1.0  0.62561  0.98737  0.59004  1.0000
  I   I239      1.0  0.64297  0.00729  0.10824  1.0000
  I   I240      1.0  0.58579  0.18056  0.89960  1.0000
  I   I241      1.0  0.62017  0.71016  0.43805  1.0000
  I   I242      1.0  0.97224  0.07825  0.30662  1.0000
  I   I243      1.0  0.46559  0.83774  0.23930  1.0000
  I   I244      1.0  0.23335  0.93886  0.62738  1.0000
  I   I245      1.0  0.12374  0.25649  0.31859  1.0000
  I   I246      1.0  0.06256  0.30933  0.88218  1.0000
  I   I247      1.0  0.08083  0.83785  0.17580  1.0000
  I   I248      1.0  0.94706  0.12672  0.65163  1.0000
  I   I249      1.0  0.96560  0.82439  0.50291  1.0000
  I   I250      1.0  0.28815  0.85511  0.02501  1.0000
  I   I251      1.0  0.04830  0.62053  0.73042  1.0000
  I   I252      1.0  0.99497  0.55801  0.96582  1.0000
  I   I253      1.0  0.37434  0.23295  0.29334  1.0000
  I   I254      1.0  0.28322  0.07438  0.48068  1.0000
  I   I255      1.0  0.35457  0.01814  0.07903  1.0000
  I   I256      1.0  0.09753  0.79966  0.95473  1.0000
  I   I257      1.0  0.20173  0.62702  0.23329  1.0000
  I   I258      1.0  0.15793  0.44842  0.41951  1.0000
  I   I259      1.0  0.54848  0.61791  0.71521  1.0000
  I   I260      1.0  0.79789  0.85007  0.76225  1.0000
  I   I261      1.0  0.21587  0.69110  0.72552  1.0000
  I   I262      1.0  0.45184  0.90672  0.73441  1.0000
  I   I263      1.0  0.80489  0.86408  0.34597  1.0000
  I   I264      1.0  0.52295  0.01398  0.75693  1.0000
  I   I265      1.0  0.31219  0.17286  0.89265  1.0000
  I   I266      1.0  0.33772  0.37930  0.02479  1.0000
  I   I267      1.0  0.32534  0.64411  0.69685  1.0000
  I   I268      1.0  0.47559  0.64018  0.11088  1.0000
  I   I269      1.0  0.65941  0.37493  0.83806  1.0000
  I   I270      1.0  0.80084  0.47265  0.82523  1.0000
  I   I271      1.0  0.87972  0.47062  0.35896  1.0000
  I   I272      1.0  0.80023  0.31032  0.54774  1.0000
  I   I273      1.0  0.91781  0.49855  0.99436  1.0000
  I   I274      1.0  0.98013  0.81888  0.08454  1.0000
  I   I275      1.0  0.66036  0.72253  0.04603  1.0000
  I   I276      1.0  0.82638  0.62726  0.69595  1.0000
  I   I277      1.0  0.62736  0.26835  0.26023  1.0000
  I   I278      1.0  0.49516  0.30041  0.53307  1.0000
  I   I279      1.0  0.58046  0.32331  0.84345  1.0000
  I   I280      1.0  0.06755  0.96839  0.95546  1.0000
  I   I281      1.0  0.68844  0.22766  0.59229  1.0000
  I   I282      1.0  0.16150  0.93890  0.46055  1.0000
  I   I283      1.0  0.85776  0.27269  0.08192  1.0000
  I   I284      1.0  0.02551  0.37658  0.48685  1.0000
  I   I285      1.0  0.01257  0.52945  0.68186  1.0000
  I   I286      1.0  0.67465  0.04137  0.63486  1.0000
  I   I287      1.0  0.53499  0.03374  0.06510  1.0000
  I   I288      1.0  0.54336  0.19749  0.75384  1.0000
  I   I289      1.0  0.62534  0.73561  0.31140  1.0000
  I   I290      1.0  0.83954  0.10423  0.43720  1.0000
  I   I291      1.0  0.99814  0.13533  0.24273  1.0000
  I   I292      1.0  0.15834  0.99999  0.63700  1.0000
  I   I293      1.0  0.06312  0.29840  0.49992  1.0000
  I   I294      1.0  0.02794  0.22897  0.67197  1.0000
  I   I295      1.0  0.01497  0.88887  0.34732  1.0000
  I   I296      1.0  0.01940  0.07260  0.66050  1.0000
  I   I297      1.0  0.95457  0.91881  0.74782  1.0000
  I   I298      1.0  0.27803  0.92924  0.16222  1.0000
  I   I299      1.0  0.22331  0.94192  0.78896  1.0000
  I   I300      1.0  0.94181  0.68432  0.99819  1.0000
  I   I301      1.0  0.34008  0.10903  0.15213  1.0000
  I   I302      1.0  0.42726  0.24530  0.22816  1.0000
  I   I303      1.0  0.24751  0.15749  0.54505  1.0000
  I   I304      1.0  0.18492  0.36317  0.35138  1.0000
  I   I305      1.0  0.15198  0.69057  0.14957  1.0000
  I   I306      1.0  0.05820  0.78347  0.50537  1.0000
  I   I307      1.0  0.49107  0.68228  0.64055  1.0000
  I   I308      1.0  0.69928  0.91449  0.91522  1.0000
  I   I309      1.0  0.10523  0.64389  0.71992  1.0000
  I   I310      1.0  0.52740  0.94328  0.51864  1.0000
  I   I311      1.0  0.80710  0.76468  0.15767  1.0000
  I   I312      1.0  0.73440  0.83154  0.42745  1.0000
  I   I313      1.0  0.36164  0.54139  0.66134  1.0000
  I   I314      1.0  0.32401  0.31391  0.81405  1.0000
  I   I315      1.0  0.28085  0.43793  0.93043  1.0000
  I   I316      1.0  0.78682  0.54819  0.82018  1.0000
  I   I317      1.0  0.56193  0.62701  0.14139  1.0000
  I   I318      1.0  0.65455  0.50708  0.91202  1.0000
  I   I319      1.0  0.90588  0.42432  0.72656  1.0000
  I   I320      1.0  0.93025  0.31700  0.33553  1.0000
  I   I321      1.0  0.88004  0.29447  0.72698  1.0000
  I   I322      1.0  0.90928  0.97995  0.93861  1.0000
  I   I323      1.0  0.70612  0.62113  0.97533  1.0000
  I   I324      1.0  0.83584  0.72515  0.47484  1.0000
  I   I325      1.0  0.65589  0.14229  0.08072  1.0000
  I   I326      1.0  0.51982  0.26397  0.40707  1.0000
  I   I327      1.0  0.54253  0.40508  0.87618  1.0000
  I   I328      1.0  0.10293  0.93229  0.08776  1.0000
  I   I329      1.0  0.71170  0.15010  0.54779  1.0000
  I   I330      1.0  0.15527  0.86483  0.36251  1.0000
  I   I331      1.0  0.11035  0.52803  0.70498  1.0000
  I   I332      1.0  0.76949  0.29371  0.05001  1.0000
  I   I333      1.0  0.91249  0.55405  0.46785  1.0000
  I   I334      1.0  0.63918  0.12026  0.73930  1.0000
  I   I335      1.0  0.70593  0.05334  0.51602  1.0000
  I   I336      1.0  0.56388  0.95636  0.97840  1.0000
  I   I337      1.0  0.57364  0.81683  0.34300  1.0000
  I   I338      1.0  0.81456  0.10963  0.26284  1.0000
  I   I339      1.0  0.95953  0.13224  0.12501  1.0000
  I   I340      1.0  0.21927  0.99329  0.52456  1.0000
  I   I341      1.0  0.06465  0.22538  0.30739  1.0000
  I   I342      1.0  0.10840  0.22248  0.80619  1.0000
  I   I343      1.0  0.96847  0.97831  0.35441  1.0000
  I   I344      1.0  0.99160  0.02276  0.73743  1.0000
  I   I345      1.0  0.92344  0.86947  0.78008  1.0000
  I   I346      1.0  0.28505  0.85639  0.15804  1.0000
  I   I347      1.0  0.22261  0.87791  0.90207  1.0000
  I   I348      1.0  0.00290  0.63122  0.93272  1.0000
  I   I349      1.0  0.26599  0.13242  0.20703  1.0000
  I   I350      1.0  0.42931  0.17333  0.18704  1.0000
  I   I351      1.0  0.22866  0.12223  0.39761  1.0000
  I   I352      1.0  0.12534  0.41982  0.28862  1.0000
  I   I353      1.0  0.15326  0.75017  0.05266  1.0000
  I   I354      1.0  0.09723  0.69797  0.50603  1.0000
  I   I355      1.0  0.63759  0.67994  0.58062  1.0000
  I   I356      1.0  0.80940  0.78198  0.80734  1.0000
  I   I357      1.0  0.14841  0.58253  0.79577  1.0000
  I   I358      1.0  0.44074  0.01067  0.52981  1.0000
  I   I359      1.0  0.82384  0.80068  0.04429  1.0000
  I   I360      1.0  0.73692  0.90957  0.43071  1.0000
  I   I361      1.0  0.40692  0.50792  0.77835  1.0000
  I   I362      1.0  0.33051  0.23491  0.84193  1.0000
  I   I363      1.0  0.35941  0.40397  0.83895  1.0000
  I   I364      1.0  0.73993  0.55644  0.67889  1.0000
  I   I365      1.0  0.49917  0.69793  0.07475  1.0000
  I   I366      1.0  0.64752  0.44533  0.81302  1.0000
  I   I367      1.0  0.89313  0.47441  0.83690  1.0000
  I   I368      1.0  0.91503  0.36691  0.21092  1.0000
  I   I369      1.0  0.91288  0.33858  0.62946  1.0000
  I   I370      1.0  0.90914  0.96368  0.09703  1.0000
  I   I371      1.0  0.62807  0.69205  0.95011  1.0000
  I   I372      1.0  0.81517  0.66437  0.43122  1.0000
  I   I373      1.0  0.68740  0.18727  0.09959  1.0000
  I   I374      1.0  0.51496  0.23489  0.26555  1.0000
  I   I375      1.0  0.57215  0.33862  0.99283  1.0000
  I   I376      1.0  0.14293  0.91273  0.92607  1.0000
  I   I377      1.0  0.73993  0.17463  0.41381  1.0000
  I   I378      1.0  0.21555  0.86770  0.42677  1.0000
  I   I379      1.0  0.13097  0.49229  0.56954  1.0000
  I   I380      1.0  0.92779  0.20985  0.06724  1.0000
  I   I381      1.0  0.96871  0.50402  0.37833  1.0000
  I   I382      1.0  0.57969  0.15628  0.62112  1.0000
  I   I383      1.0  0.75816  0.97583  0.47009  1.0000
  I   I384      1.0  0.62027  0.98152  0.92555  1.0000
