data_image0
_chemical_formula_structural       Ti96I384
_chemical_formula_sum              "Ti96 I384"
_cell_length_a       42.2667
_cell_length_b       41.9689
_cell_length_c       22.4366
_cell_angle_alpha    88.7757
_cell_angle_beta     88.7757
_cell_angle_gamma    62.1586

_space_group_name_H-M_alt    "P 1"
_space_group_IT_number       1

loop_
  _space_group_symop_operation_xyz
  'x, y, z'

loop_
  _atom_site_type_symbol
  _atom_site_label
  _atom_site_symmetry_multiplicity
  _atom_site_fract_x
  _atom_site_fract_y
  _atom_site_fract_z
  _atom_site_occupancy
  Ti  Ti1       1.0  0.23980  0.12915  0.98635  1.0000
  Ti  Ti2       1.0  0.12041  0.11662  0.38273  1.0000
  Ti  Ti3       1.0  0.16509  0.15187  0.66352  1.0000
  Ti  Ti4       1.0  0.21032  0.32625  0.15319  1.0000
  Ti  Ti5       1.0  0.22997  0.31123  0.49454  1.0000
  Ti  Ti6       1.0  0.20436  0.33556  0.81947  1.0000
  Ti  Ti7       1.0  0.11244  0.64396  0.40537  1.0000
  Ti  Ti8       1.0  0.08868  0.62678  0.74576  1.0000
  Ti  Ti9       1.0  0.10242  0.64696  0.04907  1.0000
  Ti  Ti10      1.0  0.12902  0.90037  0.25580  1.0000
  Ti  Ti11      1.0  0.12420  0.86487  0.58614  1.0000
  Ti  Ti12      1.0  0.13959  0.89030  0.93044  1.0000
  Ti  Ti13      1.0  0.50133  0.04627  0.29002  1.0000
  Ti  Ti14      1.0  0.47920  0.03743  0.63261  1.0000
  Ti  Ti15      1.0  0.47489  0.02402  0.94892  1.0000
  Ti  Ti16      1.0  0.33466  0.46132  0.42127  1.0000
  Ti  Ti17      1.0  0.34684  0.44466  0.73945  1.0000
  Ti  Ti18      1.0  0.34182  0.44867  0.09796  1.0000
  Ti  Ti19      1.0  0.43851  0.59264  0.49591  1.0000
  Ti  Ti20      1.0  0.36031  0.62863  0.89253  1.0000
  Ti  Ti21      1.0  0.38834  0.63488  0.21617  1.0000
  Ti  Ti22      1.0  0.37220  0.87119  0.00701  1.0000
  Ti  Ti23      1.0  0.38745  0.81275  0.37262  1.0000
  Ti  Ti24      1.0  0.50221  0.71795  0.77013  1.0000
  Ti  Ti25      1.0  0.57718  0.21141  0.36417  1.0000
  Ti  Ti26      1.0  0.58933  0.20183  0.67761  1.0000
  Ti  Ti27      1.0  0.62648  0.19373  0.01837  1.0000
  Ti  Ti28      1.0  0.65529  0.37653  0.17595  1.0000
  Ti  Ti29      1.0  0.64044  0.39146  0.50559  1.0000
  Ti  Ti30      1.0  0.65779  0.37936  0.83551  1.0000
  Ti  Ti31      1.0  0.70462  0.55642  0.04848  1.0000
  Ti  Ti32      1.0  0.68057  0.55995  0.39144  1.0000
  Ti  Ti33      1.0  0.72468  0.53786  0.70370  1.0000
  Ti  Ti34      1.0  0.70538  0.78770  0.32525  1.0000
  Ti  Ti35      1.0  0.70580  0.77211  0.67546  1.0000
  Ti  Ti36      1.0  0.71005  0.76972  0.01760  1.0000
  Ti  Ti37      1.0  0.86936  0.07773  0.26040  1.0000
  Ti  Ti38      1.0  0.88711  0.07720  0.59922  1.0000
  Ti  Ti39      1.0  0.87299  0.08046  0.94039  1.0000
  Ti  Ti40      1.0  0.90663  0.31144  0.10885  1.0000
  Ti  Ti41      1.0  0.88873  0.31661  0.43606  1.0000
  Ti  Ti42      1.0  0.92114  0.30665  0.77258  1.0000
  Ti  Ti43      1.0  0.91367  0.51734  0.29889  1.0000
  Ti  Ti44      1.0  0.93206  0.50987  0.64650  1.0000
  Ti  Ti45      1.0  0.91340  0.52943  0.98207  1.0000
  Ti  Ti46      1.0  0.83693  0.86585  0.27778  1.0000
  Ti  Ti47      1.0  0.82494  0.87141  0.60433  1.0000
  Ti  Ti48      1.0  0.83046  0.87345  0.91661  1.0000
  Ti  Ti49      1.0  0.15360  0.15326  0.86172  1.0000
  Ti  Ti50      1.0  0.08380  0.13263  0.22105  1.0000
  Ti  Ti51      1.0  0.07544  0.15383  0.55614  1.0000
  Ti  Ti52      1.0  0.14365  0.36621  0.98110  1.0000
  Ti  Ti53      1.0  0.14728  0.35447  0.33390  1.0000
  Ti  Ti54      1.0  0.13987  0.36712  0.64481  1.0000
  Ti  Ti55      1.0  0.06605  0.69865  0.21757  1.0000
  Ti  Ti56      1.0  0.06405  0.69998  0.58465  1.0000
  Ti  Ti57      1.0  0.04765  0.70090  0.89669  1.0000
  Ti  Ti58      1.0  0.06999  0.94921  0.08390  1.0000
  Ti  Ti59      1.0  0.05642  0.91802  0.41666  1.0000
  Ti  Ti60      1.0  0.08895  0.93176  0.75290  1.0000
  Ti  Ti61      1.0  0.42972  0.08985  0.11269  1.0000
  Ti  Ti62      1.0  0.43462  0.07960  0.45961  1.0000
  Ti  Ti63      1.0  0.41078  0.05649  0.79117  1.0000
  Ti  Ti64      1.0  0.27126  0.48991  0.25705  1.0000
  Ti  Ti65      1.0  0.26422  0.49741  0.58510  1.0000
  Ti  Ti66      1.0  0.28345  0.47651  0.90217  1.0000
  Ti  Ti67      1.0  0.34031  0.66118  0.39223  1.0000
  Ti  Ti68      1.0  0.30832  0.70445  0.78146  1.0000
  Ti  Ti69      1.0  0.33045  0.69369  0.05780  1.0000
  Ti  Ti70      1.0  0.43611  0.82122  0.86316  1.0000
  Ti  Ti71      1.0  0.30315  0.91242  0.33339  1.0000
  Ti  Ti72      1.0  0.39816  0.88267  0.49608  1.0000
  Ti  Ti73      1.0  0.54721  0.24682  0.16886  1.0000
  Ti  Ti74      1.0  0.50740  0.26677  0.51858  1.0000
  Ti  Ti75      1.0  0.54841  0.24126  0.85896  1.0000
  Ti  Ti76      1.0  0.59232  0.42287  0.99912  1.0000
  Ti  Ti77      1.0  0.57175  0.43599  0.32801  1.0000
  Ti  Ti78      1.0  0.57483  0.42981  0.67307  1.0000
  Ti  Ti79      1.0  0.67168  0.61511  0.86226  1.0000
  Ti  Ti80      1.0  0.62466  0.64556  0.17775  1.0000
  Ti  Ti81      1.0  0.65736  0.58498  0.54804  1.0000
  Ti  Ti82      1.0  0.64047  0.83116  0.16386  1.0000
  Ti  Ti83      1.0  0.64832  0.83709  0.50174  1.0000
  Ti  Ti84      1.0  0.66224  0.81649  0.84868  1.0000
  Ti  Ti85      1.0  0.84301  0.15078  0.10135  1.0000
  Ti  Ti86      1.0  0.86667  0.14469  0.42601  1.0000
  Ti  Ti87      1.0  0.83988  0.14127  0.76365  1.0000
  Ti  Ti88      1.0  0.84616  0.34912  0.93565  1.0000
  Ti  Ti89      1.0  0.83990  0.36001  0.28259  1.0000
  Ti  Ti90      1.0  0.84986  0.36357  0.61204  1.0000
  Ti  Ti91      1.0  0.87900  0.60142  0.14943  1.0000
  Ti  Ti92      1.0  0.88508  0.57581  0.48980  1.0000
  Ti  Ti93      1.0  0.88510  0.59648  0.80733  1.0000
  Ti  Ti94      1.0  0.78451  0.92699  0.10890  1.0000
  Ti  Ti95      1.0  0.76796  0.93582  0.43003  1.0000
  Ti  Ti96      1.0  0.77435  0.93280  0.76210  1.0000
  I   I1        1.0  0.13607  0.07906  0.16657  1.0000
  I   I2        1.0  0.07361  0.10342  0.48267  1.0000
  I   I3        1.0  0.14458  0.11771  0.76098  1.0000
  I   I4        1.0  0.14158  0.33146  0.21620  1.0000
  I   I5        1.0  0.14863  0.31514  0.57305  1.0000
  I   I6        1.0  0.14070  0.33907  0.87438  1.0000
  I   I7        1.0  0.04348  0.69130  0.45171  1.0000
  I   I8        1.0  0.02207  0.66709  0.80465  1.0000
  I   I9        1.0  0.03744  0.68802  0.11609  1.0000
  I   I10       1.0  0.07177  0.88757  0.30110  1.0000
  I   I11       1.0  0.06657  0.90079  0.66217  1.0000
  I   I12       1.0  0.07456  0.90101  0.99190  1.0000
  I   I13       1.0  0.43239  0.05228  0.34987  1.0000
  I   I14       1.0  0.41230  0.02957  0.67658  1.0000
  I   I15       1.0  0.40949  0.05300  0.02388  1.0000
  I   I16       1.0  0.26447  0.47326  0.46114  1.0000
  I   I17       1.0  0.28594  0.43852  0.80842  1.0000
  I   I18       1.0  0.27819  0.45041  0.14771  1.0000
  I   I19       1.0  0.25583  0.71029  0.70383  1.0000
  I   I20       1.0  0.29949  0.67296  0.96436  1.0000
  I   I21       1.0  0.32479  0.64264  0.28223  1.0000
  I   I22       1.0  0.24612  0.90868  0.37739  1.0000
  I   I23       1.0  0.33966  0.88022  0.43997  1.0000
  I   I24       1.0  0.42984  0.75983  0.80468  1.0000
  I   I25       1.0  0.50464  0.24055  0.40106  1.0000
  I   I26       1.0  0.52953  0.21127  0.76730  1.0000
  I   I27       1.0  0.56237  0.19406  0.08334  1.0000
  I   I28       1.0  0.58113  0.39315  0.23652  1.0000
  I   I29       1.0  0.57876  0.39110  0.57195  1.0000
  I   I30       1.0  0.59570  0.38882  0.89871  1.0000
  I   I31       1.0  0.63419  0.59150  0.09185  1.0000
  I   I32       1.0  0.62614  0.55729  0.46887  1.0000
  I   I33       1.0  0.65551  0.58157  0.77167  1.0000
  I   I34       1.0  0.64723  0.79734  0.40389  1.0000
  I   I35       1.0  0.63756  0.79798  0.73836  1.0000
  I   I36       1.0  0.63620  0.79807  0.06874  1.0000
  I   I37       1.0  0.82263  0.13391  0.32947  1.0000
  I   I38       1.0  0.81780  0.11550  0.67370  1.0000
  I   I39       1.0  0.81003  0.14182  0.98637  1.0000
  I   I40       1.0  0.83776  0.32044  0.17187  1.0000
  I   I41       1.0  0.82548  0.34190  0.50656  1.0000
  I   I42       1.0  0.85439  0.30809  0.82279  1.0000
  I   I43       1.0  0.84922  0.58976  0.37501  1.0000
  I   I44       1.0  0.86299  0.56798  0.71263  1.0000
  I   I45       1.0  0.85052  0.59110  0.03039  1.0000
  I   I46       1.0  0.75782  0.90397  0.33705  1.0000
  I   I47       1.0  0.76186  0.89437  0.66751  1.0000
  I   I48       1.0  0.76331  0.91525  0.97833  1.0000
  I   I49       1.0  0.17107  0.19294  0.93652  1.0000
  I   I50       1.0  0.04500  0.16397  0.33148  1.0000
  I   I51       1.0  0.09518  0.19418  0.62882  1.0000
  I   I52       1.0  0.15792  0.38695  0.09138  1.0000
  I   I53       1.0  0.17396  0.37426  0.43245  1.0000
  I   I54       1.0  0.14983  0.39675  0.75559  1.0000
  I   I55       1.0  0.09432  0.71284  0.32392  1.0000
  I   I56       1.0  0.10211  0.68667  0.68991  1.0000
  I   I57       1.0  0.08851  0.70749  0.97635  1.0000
  I   I58       1.0  0.07359  0.97070  0.20045  1.0000
  I   I59       1.0  0.07309  0.93688  0.52176  1.0000
  I   I60       1.0  0.11576  0.95674  0.84971  1.0000
  I   I61       1.0  0.46671  0.11186  0.22064  1.0000
  I   I62       1.0  0.44013  0.10363  0.57969  1.0000
  I   I63       1.0  0.42039  0.09668  0.87741  1.0000
  I   I64       1.0  0.29206  0.52665  0.33998  1.0000
  I   I65       1.0  0.29019  0.50965  0.69890  1.0000
  I   I66       1.0  0.29798  0.50330  0.00792  1.0000
  I   I67       1.0  0.37500  0.66696  0.49463  1.0000
  I   I68       1.0  0.36595  0.70043  0.85210  1.0000
  I   I69       1.0  0.36459  0.70357  0.15058  1.0000
  I   I70       1.0  0.45054  0.87068  0.90032  1.0000
  I   I71       1.0  0.37939  0.86725  0.28205  1.0000
  I   I72       1.0  0.45023  0.84924  0.56898  1.0000
  I   I73       1.0  0.55866  0.27106  0.27167  1.0000
  I   I74       1.0  0.52746  0.28378  0.62147  1.0000
  I   I75       1.0  0.57778  0.25503  0.94847  1.0000
  I   I76       1.0  0.60715  0.44695  0.10839  1.0000
  I   I77       1.0  0.59475  0.45236  0.44162  1.0000
  I   I78       1.0  0.59966  0.45118  0.76709  1.0000
  I   I79       1.0  0.70125  0.61254  0.96582  1.0000
  I   I80       1.0  0.64230  0.67645  0.26004  1.0000
  I   I81       1.0  0.69364  0.60324  0.62306  1.0000
  I   I82       1.0  0.67383  0.85500  0.25820  1.0000
  I   I83       1.0  0.66223  0.85978  0.60438  1.0000
  I   I84       1.0  0.68415  0.83507  0.95241  1.0000
  I   I85       1.0  0.88622  0.13524  0.21241  1.0000
  I   I86       1.0  0.90648  0.13117  0.51578  1.0000
  I   I87       1.0  0.87940  0.14097  0.86291  1.0000
  I   I88       1.0  0.86445  0.38082  0.02584  1.0000
  I   I89       1.0  0.84990  0.39175  0.38098  1.0000
  I   I90       1.0  0.87800  0.37974  0.71509  1.0000
  I   I91       1.0  0.91814  0.58253  0.25541  1.0000
  I   I92       1.0  0.93198  0.56803  0.58275  1.0000
  I   I93       1.0  0.92577  0.58746  0.90625  1.0000
  I   I94       1.0  0.82000  0.92553  0.20739  1.0000
  I   I95       1.0  0.79735  0.94098  0.53018  1.0000
  I   I96       1.0  0.80775  0.94552  0.86701  1.0000
  I   I97       1.0  0.15335  0.19522  0.76173  1.0000
  I   I98       1.0  0.20471  0.15632  0.08180  1.0000
  I   I99       1.0  0.12355  0.16590  0.44550  1.0000
  I   I100      1.0  0.20865  0.36327  0.92795  1.0000
  I   I101      1.0  0.20401  0.35963  0.26182  1.0000
  I   I102      1.0  0.21912  0.36042  0.57186  1.0000
  I   I103      1.0  0.12861  0.67300  0.15301  1.0000
  I   I104      1.0  0.12411  0.66864  0.51483  1.0000
  I   I105      1.0  0.11525  0.65216  0.83790  1.0000
  I   I106      1.0  0.14535  0.91911  0.03241  1.0000
  I   I107      1.0  0.12126  0.91985  0.37399  1.0000
  I   I108      1.0  0.14711  0.90014  0.66227  1.0000
  I   I109      1.0  0.49415  0.06137  0.02999  1.0000
  I   I110      1.0  0.50224  0.08183  0.38382  1.0000
  I   I111      1.0  0.47279  0.05704  0.74342  1.0000
  I   I112      1.0  0.33637  0.48273  0.20247  1.0000
  I   I113      1.0  0.32285  0.49784  0.52450  1.0000
  I   I114      1.0  0.34669  0.47402  0.85028  1.0000
  I   I115      1.0  0.40671  0.64793  0.33071  1.0000
  I   I116      1.0  0.42233  0.58062  0.60174  1.0000
  I   I117      1.0  0.39105  0.64488  0.99192  1.0000
  I   I118      1.0  0.50984  0.76392  0.86396  1.0000
  I   I119      1.0  0.36414  0.93729  0.00805  1.0000
  I   I120      1.0  0.44320  0.82743  0.40930  1.0000
  I   I121      1.0  0.62471  0.23069  0.11703  1.0000
  I   I122      1.0  0.57248  0.25750  0.45730  1.0000
  I   I123      1.0  0.60952  0.22726  0.76814  1.0000
  I   I124      1.0  0.64874  0.42516  0.92786  1.0000
  I   I125      1.0  0.64308  0.41397  0.28464  1.0000
  I   I126      1.0  0.63469  0.43141  0.60188  1.0000
  I   I127      1.0  0.73871  0.56886  0.80061  1.0000
  I   I128      1.0  0.70327  0.59806  0.15262  1.0000
  I   I129      1.0  0.72701  0.55718  0.48558  1.0000
  I   I130      1.0  0.71658  0.80421  0.11618  1.0000
  I   I131      1.0  0.71550  0.81548  0.43973  1.0000
  I   I132      1.0  0.72458  0.78960  0.79081  1.0000
  I   I133      1.0  0.89829  0.09132  0.04989  1.0000
  I   I134      1.0  0.90201  0.07081  0.37833  1.0000
  I   I135      1.0  0.91020  0.09150  0.70109  1.0000
  I   I136      1.0  0.91270  0.34152  0.88417  1.0000
  I   I137      1.0  0.90635  0.34091  0.22451  1.0000
  I   I138      1.0  0.90818  0.34095  0.53412  1.0000
  I   I139      1.0  0.94030  0.55368  0.08619  1.0000
  I   I140      1.0  0.93998  0.52146  0.40172  1.0000
  I   I141      1.0  0.95109  0.53248  0.74755  1.0000
  I   I142      1.0  0.84099  0.90332  0.03595  1.0000
  I   I143      1.0  0.85009  0.89325  0.37976  1.0000
  I   I144      1.0  0.84206  0.90411  0.70598  1.0000
  I   I145      1.0  0.23725  0.10671  0.86903  1.0000
  I   I146      1.0  0.11172  0.06986  0.30972  1.0000
  I   I147      1.0  0.14491  0.10251  0.58723  1.0000
  I   I148      1.0  0.20698  0.29921  0.03561  1.0000
  I   I149      1.0  0.20555  0.29069  0.38971  1.0000
  I   I150      1.0  0.19936  0.30380  0.71130  1.0000
  I   I151      1.0  0.08500  0.63331  0.29757  1.0000
  I   I152      1.0  0.04983  0.63986  0.62055  1.0000
  I   I153      1.0  0.06806  0.62724  0.96780  1.0000
  I   I154      1.0  0.10355  0.88507  0.15625  1.0000
  I   I155      1.0  0.10949  0.84514  0.47636  1.0000
  I   I156      1.0  0.11249  0.86627  0.83253  1.0000
  I   I157      1.0  0.47435  0.02430  0.17569  1.0000
  I   I158      1.0  0.49440  0.01744  0.49727  1.0000
  I   I159      1.0  0.45175  0.99342  0.86989  1.0000
  I   I160      1.0  0.31428  0.43099  0.33091  1.0000
  I   I161      1.0  0.32082  0.42543  0.64540  1.0000
  I   I162      1.0  0.33946  0.41941  0.98312  1.0000
  I   I163      1.0  0.38613  0.58792  0.43667  1.0000
  I   I164      1.0  0.31848  0.63217  0.80399  1.0000
  I   I165      1.0  0.34975  0.62786  0.12434  1.0000
  I   I166      1.0  0.42000  0.79868  0.97677  1.0000
  I   I167      1.0  0.32683  0.82639  0.32151  1.0000
  I   I168      1.0  0.48130  0.74620  0.66487  1.0000
  I   I169      1.0  0.57301  0.18063  0.25582  1.0000
  I   I170      1.0  0.54413  0.20034  0.59794  1.0000
  I   I171      1.0  0.59672  0.16707  0.91664  1.0000
  I   I172      1.0  0.64180  0.35229  0.06880  1.0000
  I   I173      1.0  0.61202  0.36949  0.40727  1.0000
  I   I174      1.0  0.62569  0.36364  0.72568  1.0000
  I   I175      1.0  0.68847  0.54117  0.93551  1.0000
  I   I176      1.0  0.63772  0.58238  0.30279  1.0000
  I   I177      1.0  0.68099  0.52318  0.62291  1.0000
  I   I178      1.0  0.67477  0.76710  0.22991  1.0000
  I   I179      1.0  0.68349  0.76355  0.56695  1.0000
  I   I180      1.0  0.68591  0.75101  0.91557  1.0000
  I   I181      1.0  0.82718  0.09737  0.16294  1.0000
  I   I182      1.0  0.82899  0.10609  0.51101  1.0000
  I   I183      1.0  0.83666  0.08761  0.84285  1.0000
  I   I184      1.0  0.90065  0.28442  0.00181  1.0000
  I   I185      1.0  0.87058  0.28798  0.33553  1.0000
  I   I186      1.0  0.89704  0.29347  0.66498  1.0000
  I   I187      1.0  0.86407  0.54187  0.19585  1.0000
  I   I188      1.0  0.88799  0.51034  0.55296  1.0000
  I   I189      1.0  0.87888  0.53990  0.87750  1.0000
  I   I190      1.0  0.80518  0.85724  0.17622  1.0000
  I   I191      1.0  0.79842  0.86661  0.49861  1.0000
  I   I192      1.0  0.79787  0.86642  0.82229  1.0000
  I   I193      1.0  0.26464  0.17495  0.95642  1.0000
  I   I194      1.0  0.14403  0.13755  0.28648  1.0000
  I   I195      1.0  0.17969  0.18724  0.58318  1.0000
  I   I196      1.0  0.26972  0.32946  0.13846  1.0000
  I   I197      1.0  0.28741  0.30919  0.44679  1.0000
  I   I198      1.0  0.26178  0.34161  0.78379  1.0000
  I   I199      1.0  0.17691  0.61889  0.36471  1.0000
  I   I200      1.0  0.15301  0.57614  0.72001  1.0000
  I   I201      1.0  0.16887  0.62054  0.00687  1.0000
  I   I202      1.0  0.17762  0.91799  0.22350  1.0000
  I   I203      1.0  0.19259  0.83558  0.55032  1.0000
  I   I204      1.0  0.20122  0.88950  0.90554  1.0000
  I   I205      1.0  0.56150  0.03533  0.23703  1.0000
  I   I206      1.0  0.53810  0.04029  0.62304  1.0000
  I   I207      1.0  0.53577  0.00257  0.89649  1.0000
  I   I208      1.0  0.39595  0.45446  0.37348  1.0000
  I   I209      1.0  0.39256  0.46182  0.68176  1.0000
  I   I210      1.0  0.39736  0.45640  0.06235  1.0000
  I   I211      1.0  0.47074  0.63210  0.48337  1.0000
  I   I212      1.0  0.42778  0.58729  0.85314  1.0000
  I   I213      1.0  0.45703  0.60764  0.18089  1.0000
  I   I214      1.0  0.41134  0.84390  0.10988  1.0000
  I   I215      1.0  0.43042  0.75644  0.31016  1.0000
  I   I216      1.0  0.56857  0.69157  0.73579  1.0000
  I   I217      1.0  0.64068  0.20136  0.33719  1.0000
  I   I218      1.0  0.63681  0.20373  0.60531  1.0000
  I   I219      1.0  0.68754  0.18272  0.95178  1.0000
  I   I220      1.0  0.71229  0.38573  0.15488  1.0000
  I   I221      1.0  0.69638  0.38904  0.45146  1.0000
  I   I222      1.0  0.70270  0.39142  0.77154  1.0000
  I   I223      1.0  0.77276  0.52710  0.04425  1.0000
  I   I224      1.0  0.72942  0.56646  0.31981  1.0000
  I   I225      1.0  0.78265  0.51955  0.64328  1.0000
  I   I226      1.0  0.76551  0.78111  0.27472  1.0000
  I   I227      1.0  0.75979  0.77799  0.63011  1.0000
  I   I228      1.0  0.77610  0.74340  0.96598  1.0000
  I   I229      1.0  0.92886  0.02936  0.21648  1.0000
  I   I230      1.0  0.95082  0.02670  0.56988  1.0000
  I   I231      1.0  0.93800  0.03976  0.90843  1.0000
  I   I232      1.0  0.95794  0.32652  0.07636  1.0000
  I   I233      1.0  0.95295  0.29221  0.38912  1.0000
  I   I234      1.0  0.97677  0.31276  0.74036  1.0000
  I   I235      1.0  0.96290  0.46873  0.24108  1.0000
  I   I236      1.0  0.99040  0.46140  0.58884  1.0000
  I   I237      1.0  0.98174  0.48505  0.96410  1.0000
  I   I238      1.0  0.90153  0.84076  0.22912  1.0000
  I   I239      1.0  0.88524  0.86714  0.57015  1.0000
  I   I240      1.0  0.89583  0.85964  0.88584  1.0000
  I   I241      1.0  0.30476  0.08445  0.01662  1.0000
  I   I242      1.0  0.18782  0.06811  0.42218  1.0000
  I   I243      1.0  0.23080  0.09896  0.66830  1.0000
  I   I244      1.0  0.24096  0.26165  0.19529  1.0000
  I   I245      1.0  0.25044  0.25777  0.56557  1.0000
  I   I246      1.0  0.25147  0.26831  0.85019  1.0000
  I   I247      1.0  0.11789  0.58503  0.45175  1.0000
  I   I248      1.0  0.07671  0.57663  0.80116  1.0000
  I   I249      1.0  0.11625  0.58408  0.10368  1.0000
  I   I250      1.0  0.17154  0.83387  0.28292  1.0000
  I   I251      1.0  0.13888  0.80298  0.63962  1.0000
  I   I252      1.0  0.16365  0.82088  0.96160  1.0000
  I   I253      1.0  0.53226  0.98253  0.33058  1.0000
  I   I254      1.0  0.50597  0.96861  0.65099  1.0000
  I   I255      1.0  0.48942  0.96491  0.00845  1.0000
  I   I256      1.0  0.36396  0.40001  0.47417  1.0000
  I   I257      1.0  0.39494  0.37930  0.77687  1.0000
  I   I258      1.0  0.37082  0.38650  0.15356  1.0000
  I   I259      1.0  0.49385  0.53551  0.45565  1.0000
  I   I260      1.0  0.36257  0.57561  0.95632  1.0000
  I   I261      1.0  0.40238  0.56594  0.24896  1.0000
  I   I262      1.0  0.31795  0.86981  0.05340  1.0000
  I   I263      1.0  0.38867  0.78728  0.48317  1.0000
  I   I264      1.0  0.50184  0.65676  0.78984  1.0000
  I   I265      1.0  0.59417  0.15621  0.43290  1.0000
  I   I266      1.0  0.61840  0.13288  0.69372  1.0000
  I   I267      1.0  0.65608  0.13145  0.06858  1.0000
  I   I268      1.0  0.68290  0.31780  0.24106  1.0000
  I   I269      1.0  0.67750  0.32318  0.54805  1.0000
  I   I270      1.0  0.69520  0.31065  0.87994  1.0000
  I   I271      1.0  0.70588  0.49887  0.10005  1.0000
  I   I272      1.0  0.71343  0.48694  0.39117  1.0000
  I   I273      1.0  0.73982  0.48046  0.76810  1.0000
  I   I274      1.0  0.73764  0.71809  0.36189  1.0000
  I   I275      1.0  0.72886  0.70677  0.70904  1.0000
  I   I276      1.0  0.73178  0.70857  0.07602  1.0000
  I   I277      1.0  0.84625  0.03015  0.27759  1.0000
  I   I278      1.0  0.87199  0.02570  0.63622  1.0000
  I   I279      1.0  0.85055  0.03859  0.99141  1.0000
  I   I280      1.0  0.93792  0.24942  0.16074  1.0000
  I   I281      1.0  0.91335  0.24932  0.47659  1.0000
  I   I282      1.0  0.95098  0.23978  0.81137  1.0000
  I   I283      1.0  0.88968  0.47171  0.34091  1.0000
  I   I284      1.0  0.92649  0.46231  0.71947  1.0000
  I   I285      1.0  0.89545  0.48619  0.04044  1.0000
  I   I286      1.0  0.84251  0.80501  0.33282  1.0000
  I   I287      1.0  0.84479  0.80381  0.63298  1.0000
  I   I288      1.0  0.84202  0.81355  0.96841  1.0000
  I   I289      1.0  0.15354  0.10900  0.94655  1.0000
  I   I290      1.0  0.02761  0.13249  0.17450  1.0000
  I   I291      1.0  0.03371  0.15566  0.64228  1.0000
  I   I292      1.0  0.09717  0.35177  0.02986  1.0000
  I   I293      1.0  0.10339  0.33667  0.37564  1.0000
  I   I294      1.0  0.08665  0.36650  0.70869  1.0000
  I   I295      1.0  0.00680  0.70805  0.27890  1.0000
  I   I296      1.0  0.99643  0.73830  0.61601  1.0000
  I   I297      1.0  0.98952  0.72709  0.95994  1.0000
  I   I298      1.0  0.00713  0.95604  0.09971  1.0000
  I   I299      1.0  0.00513  0.90232  0.44928  1.0000
  I   I300      1.0  0.02395  0.95844  0.80067  1.0000
  I   I301      1.0  0.38079  0.09745  0.18742  1.0000
  I   I302      1.0  0.37946  0.07874  0.50665  1.0000
  I   I303      1.0  0.35609  0.05270  0.84695  1.0000
  I   I304      1.0  0.21901  0.47582  0.28723  1.0000
  I   I305      1.0  0.21511  0.47518  0.62389  1.0000
  I   I306      1.0  0.23830  0.46327  0.96564  1.0000
  I   I307      1.0  0.27649  0.67128  0.42789  1.0000
  I   I308      1.0  0.26665  0.76323  0.83749  1.0000
  I   I309      1.0  0.27124  0.71950  0.13065  1.0000
  I   I310      1.0  0.36407  0.86516  0.88739  1.0000
  I   I311      1.0  0.28923  0.97620  0.36968  1.0000
  I   I312      1.0  0.35364  0.91507  0.57993  1.0000
  I   I313      1.0  0.48183  0.25741  0.18602  1.0000
  I   I314      1.0  0.44586  0.27518  0.54749  1.0000
  I   I315      1.0  0.49391  0.25825  0.93860  1.0000
  I   I316      1.0  0.53721  0.41750  0.03098  1.0000
  I   I317      1.0  0.51106  0.43853  0.36899  1.0000
  I   I318      1.0  0.52385  0.41210  0.70547  1.0000
  I   I319      1.0  0.60962  0.64163  0.91658  1.0000
  I   I320      1.0  0.56029  0.65903  0.21544  1.0000
  I   I321      1.0  0.59587  0.62479  0.60260  1.0000
  I   I322      1.0  0.57089  0.85610  0.19320  1.0000
  I   I323      1.0  0.59137  0.84164  0.55254  1.0000
  I   I324      1.0  0.59367  0.84314  0.88770  1.0000
  I   I325      1.0  0.78556  0.21092  0.13142  1.0000
  I   I326      1.0  0.81194  0.20537  0.45150  1.0000
  I   I327      1.0  0.77976  0.19120  0.80826  1.0000
  I   I328      1.0  0.80162  0.33414  0.99068  1.0000
  I   I329      1.0  0.77230  0.38056  0.30958  1.0000
  I   I330      1.0  0.78738  0.38367  0.65443  1.0000
  I   I331      1.0  0.81520  0.63318  0.20457  1.0000
  I   I332      1.0  0.82511  0.62631  0.52479  1.0000
  I   I333      1.0  0.82041  0.64000  0.84642  1.0000
  I   I334      1.0  0.71951  0.93563  0.14621  1.0000
  I   I335      1.0  0.70477  0.95166  0.47484  1.0000
  I   I336      1.0  0.71247  0.96282  0.81249  1.0000
  I   I337      1.0  0.08531  0.19320  0.86735  1.0000
  I   I338      1.0  0.07754  0.18524  0.15654  1.0000
  I   I339      1.0  0.02717  0.21490  0.50692  1.0000
  I   I340      1.0  0.10755  0.43543  0.93905  1.0000
  I   I341      1.0  0.09483  0.42219  0.31872  1.0000
  I   I342      1.0  0.10847  0.42573  0.58622  1.0000
  I   I343      1.0  0.04374  0.76542  0.18878  1.0000
  I   I344      1.0  0.07074  0.75849  0.55979  1.0000
  I   I345      1.0  0.02652  0.75670  0.82529  1.0000
  I   I346      1.0  0.06424  0.00932  0.04037  1.0000
  I   I347      1.0  0.01483  0.97890  0.37739  1.0000
  I   I348      1.0  0.06549  0.99145  0.68865  1.0000
  I   I349      1.0  0.39464  0.14658  0.04522  1.0000
  I   I350      1.0  0.40582  0.15047  0.42929  1.0000
  I   I351      1.0  0.35592  0.12348  0.76301  1.0000
  I   I352      1.0  0.23654  0.55260  0.20476  1.0000
  I   I353      1.0  0.22126  0.56388  0.56724  1.0000
  I   I354      1.0  0.23710  0.53971  0.86093  1.0000
  I   I355      1.0  0.31887  0.73045  0.39417  1.0000
  I   I356      1.0  0.34476  0.71090  0.69013  1.0000
  I   I357      1.0  0.32678  0.75205  0.00874  1.0000
  I   I358      1.0  0.43425  0.84472  0.75540  1.0000
  I   I359      1.0  0.27822  0.92416  0.22397  1.0000
  I   I360      1.0  0.40007  0.93756  0.43738  1.0000
  I   I361      1.0  0.52298  0.30578  0.09944  1.0000
  I   I362      1.0  0.48054  0.33297  0.47096  1.0000
  I   I363      1.0  0.51578  0.30433  0.81248  1.0000
  I   I364      1.0  0.55936  0.48976  0.95808  1.0000
  I   I365      1.0  0.55027  0.49634  0.27007  1.0000
  I   I366      1.0  0.53586  0.49447  0.63569  1.0000
  I   I367      1.0  0.66528  0.67785  0.83174  1.0000
  I   I368      1.0  0.60028  0.68887  0.09194  1.0000
  I   I369      1.0  0.64195  0.63378  0.44881  1.0000
  I   I370      1.0  0.63101  0.88879  0.10250  1.0000
  I   I371      1.0  0.63316  0.89590  0.43795  1.0000
  I   I372      1.0  0.64456  0.88092  0.80367  1.0000
  I   I373      1.0  0.86943  0.19378  0.07246  1.0000
  I   I374      1.0  0.90458  0.16465  0.35642  1.0000
  I   I375      1.0  0.85724  0.18684  0.70138  1.0000
  I   I376      1.0  0.80436  0.41325  0.88469  1.0000
  I   I377      1.0  0.80772  0.42223  0.22014  1.0000
  I   I378      1.0  0.83129  0.42972  0.56001  1.0000
  I   I379      1.0  0.87823  0.66282  0.12208  1.0000
  I   I380      1.0  0.91612  0.61616  0.43375  1.0000
  I   I381      1.0  0.89878  0.64209  0.73734  1.0000
  I   I382      1.0  0.75842  0.99583  0.09511  1.0000
  I   I383      1.0  0.75990  0.99436  0.38029  1.0000
  I   I384      1.0  0.74805  0.99457  0.70394  1.0000
