data_image0
_chemical_formula_structural       Ti96I384
_chemical_formula_sum              "Ti96 I384"
_cell_length_a       68.0618
_cell_length_b       67.9562
_cell_length_c       33.2673
_cell_angle_alpha    88.7757
_cell_angle_beta     88.7757
_cell_angle_gamma    62.1586

_space_group_name_H-M_alt    "P 1"
_space_group_IT_number       1

loop_
  _space_group_symop_operation_xyz
  'x, y, z'

loop_
  _atom_site_type_symbol
  _atom_site_label
  _atom_site_symmetry_multiplicity
  _atom_site_fract_x
  _atom_site_fract_y
  _atom_site_fract_z
  _atom_site_occupancy
  Ti  Ti1       1.0  0.13380  0.78062  0.02545  1.0000
  Ti  Ti2       1.0  0.87109  0.04271  0.88772  1.0000
  Ti  Ti3       1.0  0.57273  0.94112  0.13748  1.0000
  Ti  Ti4       1.0  0.82334  0.35400  0.10756  1.0000
  Ti  Ti5       1.0  0.49254  0.84958  0.24855  1.0000
  Ti  Ti6       1.0  0.91003  0.76366  0.99890  1.0000
  Ti  Ti7       1.0  0.88216  0.38914  0.57369  1.0000
  Ti  Ti8       1.0  0.28137  0.87702  0.32569  1.0000
  Ti  Ti9       1.0  0.22138  0.02377  0.93624  1.0000
  Ti  Ti10      1.0  0.99526  0.74624  0.49432  1.0000
  Ti  Ti11      1.0  0.30342  0.13031  0.75819  1.0000
  Ti  Ti12      1.0  0.22327  0.57103  0.69718  1.0000
  Ti  Ti13      1.0  0.99886  0.11240  0.30741  1.0000
  Ti  Ti14      1.0  0.95611  0.04751  0.69401  1.0000
  Ti  Ti15      1.0  0.80425  0.98771  0.54287  1.0000
  Ti  Ti16      1.0  0.93939  0.79760  0.45865  1.0000
  Ti  Ti17      1.0  0.31277  0.06144  0.59250  1.0000
  Ti  Ti18      1.0  0.68240  0.78524  0.81173  1.0000
  Ti  Ti19      1.0  0.53950  0.57646  0.85365  1.0000
  Ti  Ti20      1.0  0.15323  0.10715  0.77204  1.0000
  Ti  Ti21      1.0  0.20954  0.91676  0.29158  1.0000
  Ti  Ti22      1.0  0.65942  0.81008  0.28911  1.0000
  Ti  Ti23      1.0  0.45427  0.11210  0.54783  1.0000
  Ti  Ti24      1.0  0.27303  0.85101  0.03561  1.0000
  Ti  Ti25      1.0  0.53341  0.87375  0.65306  1.0000
  Ti  Ti26      1.0  0.35600  0.77532  0.79360  1.0000
  Ti  Ti27      1.0  0.77479  0.25383  0.70343  1.0000
  Ti  Ti28      1.0  0.77918  0.48512  0.41874  1.0000
  Ti  Ti29      1.0  0.05156  0.82983  0.09886  1.0000
  Ti  Ti30      1.0  0.44031  0.98260  0.83816  1.0000
  Ti  Ti31      1.0  0.18279  0.52914  0.04540  1.0000
  Ti  Ti32      1.0  0.95972  0.27039  0.90012  1.0000
  Ti  Ti33      1.0  0.14653  0.82246  0.52007  1.0000
  Ti  Ti34      1.0  0.34406  0.32336  0.50194  1.0000
  Ti  Ti35      1.0  0.71961  0.59103  0.63035  1.0000
  Ti  Ti36      1.0  0.98665  0.11814  0.01135  1.0000
  Ti  Ti37      1.0  0.18772  0.36009  0.44360  1.0000
  Ti  Ti38      1.0  0.36505  0.40076  0.11252  1.0000
  Ti  Ti39      1.0  0.81210  0.61896  0.24054  1.0000
  Ti  Ti40      1.0  0.24800  0.36285  0.75822  1.0000
  Ti  Ti41      1.0  0.47937  0.47913  0.62006  1.0000
  Ti  Ti42      1.0  0.06265  0.21883  0.40180  1.0000
  Ti  Ti43      1.0  0.35236  0.88495  0.15320  1.0000
  Ti  Ti44      1.0  0.85296  0.57340  0.82278  1.0000
  Ti  Ti45      1.0  0.23902  0.68402  0.54575  1.0000
  Ti  Ti46      1.0  0.72133  0.31198  0.31799  1.0000
  Ti  Ti47      1.0  0.29091  0.58137  0.38735  1.0000
  Ti  Ti48      1.0  0.75929  0.13494  0.21458  1.0000
  Ti  Ti49      1.0  0.97558  0.25600  0.18433  1.0000
  Ti  Ti50      1.0  0.06027  0.30130  0.58770  1.0000
  Ti  Ti51      1.0  0.88401  0.07920  0.90765  1.0000
  Ti  Ti52      1.0  0.82990  0.08439  0.44791  1.0000
  Ti  Ti53      1.0  0.42122  0.69939  0.28786  1.0000
  Ti  Ti54      1.0  0.85819  0.79305  0.08856  1.0000
  Ti  Ti55      1.0  0.88476  0.39426  0.67062  1.0000
  Ti  Ti56      1.0  0.01077  0.40379  0.86126  1.0000
  Ti  Ti57      1.0  0.17087  0.08287  0.00534  1.0000
  Ti  Ti58      1.0  0.61181  0.28979  0.51647  1.0000
  Ti  Ti59      1.0  0.35236  0.26636  0.21312  1.0000
  Ti  Ti60      1.0  0.21818  0.61972  0.77737  1.0000
  Ti  Ti61      1.0  0.83971  0.95673  0.42766  1.0000
  Ti  Ti62      1.0  0.94764  0.09087  0.34033  1.0000
  Ti  Ti63      1.0  0.98369  0.01033  0.74156  1.0000
  Ti  Ti64      1.0  0.65220  0.82304  0.88595  1.0000
  Ti  Ti65      1.0  0.63933  0.95093  0.94366  1.0000
  Ti  Ti66      1.0  0.48801  0.15991  0.99503  1.0000
  Ti  Ti67      1.0  0.58464  0.55902  0.89108  1.0000
  Ti  Ti68      1.0  0.79508  0.52407  0.10065  1.0000
  Ti  Ti69      1.0  0.40663  0.78087  0.91081  1.0000
  Ti  Ti70      1.0  0.41895  0.86484  0.16869  1.0000
  Ti  Ti71      1.0  0.39812  0.10227  0.51105  1.0000
  Ti  Ti72      1.0  0.04563  0.18916  0.02088  1.0000
  Ti  Ti73      1.0  0.79200  0.19938  0.76514  1.0000
  Ti  Ti74      1.0  0.55333  0.91120  0.57842  1.0000
  Ti  Ti75      1.0  0.34517  0.78744  0.69301  1.0000
  Ti  Ti76      1.0  0.43961  0.00963  0.75209  1.0000
  Ti  Ti77      1.0  0.75975  0.50077  0.30620  1.0000
  Ti  Ti78      1.0  0.99702  0.85058  0.11325  1.0000
  Ti  Ti79      1.0  0.75558  0.35614  0.82276  1.0000
  Ti  Ti80      1.0  0.79648  0.40089  0.21072  1.0000
  Ti  Ti81      1.0  0.88468  0.30862  0.92817  1.0000
  Ti  Ti82      1.0  0.27510  0.41723  0.51548  1.0000
  Ti  Ti83      1.0  0.66153  0.63712  0.64945  1.0000
  Ti  Ti84      1.0  0.99188  0.06952  0.03035  1.0000
  Ti  Ti85      1.0  0.19886  0.31669  0.38948  1.0000
  Ti  Ti86      1.0  0.47887  0.22456  0.96905  1.0000
  Ti  Ti87      1.0  0.86491  0.57147  0.15988  1.0000
  Ti  Ti88      1.0  0.46772  0.44733  0.25782  1.0000
  Ti  Ti89      1.0  0.49219  0.51730  0.65141  1.0000
  Ti  Ti90      1.0  0.10206  0.16988  0.48308  1.0000
  Ti  Ti91      1.0  0.26009  0.67390  0.68485  1.0000
  Ti  Ti92      1.0  0.34778  0.54388  0.06837  1.0000
  Ti  Ti93      1.0  0.88865  0.59415  0.87739  1.0000
  Ti  Ti94      1.0  0.74612  0.19382  0.17301  1.0000
  Ti  Ti95      1.0  0.73702  0.33485  0.37834  1.0000
  Ti  Ti96      1.0  0.29976  0.55558  0.46642  1.0000
  I   I1        1.0  0.26153  0.56636  0.42168  1.0000
  I   I2        1.0  0.89637  0.10794  0.87965  1.0000
  I   I3        1.0  0.93650  0.28357  0.21639  1.0000
  I   I4        1.0  0.38612  0.70293  0.24673  1.0000
  I   I5        1.0  0.93459  0.72229  0.99920  1.0000
  I   I6        1.0  0.83918  0.78307  0.15075  1.0000
  I   I7        1.0  0.31063  0.88372  0.37481  1.0000
  I   I8        1.0  0.99012  0.39135  0.80982  1.0000
  I   I9        1.0  0.17043  0.06419  0.07763  1.0000
  I   I10       1.0  0.91833  0.84283  0.48924  1.0000
  I   I11       1.0  0.27054  0.13716  0.70989  1.0000
  I   I12       1.0  0.48873  0.83248  0.31392  1.0000
  I   I13       1.0  0.00713  0.14512  0.29774  1.0000
  I   I14       1.0  0.93246  0.05979  0.62917  1.0000
  I   I15       1.0  0.82640  0.00972  0.57066  1.0000
  I   I16       1.0  0.96705  0.78719  0.52613  1.0000
  I   I17       1.0  0.46555  0.20102  0.03736  1.0000
  I   I18       1.0  0.64024  0.80071  0.81907  1.0000
  I   I19       1.0  0.13259  0.14249  0.72827  1.0000
  I   I20       1.0  0.29435  0.11485  0.82102  1.0000
  I   I21       1.0  0.18475  0.90033  0.26385  1.0000
  I   I22       1.0  0.49632  0.09724  0.52730  1.0000
  I   I23       1.0  0.44804  0.07059  0.50398  1.0000
  I   I24       1.0  0.43788  0.85398  0.09418  1.0000
  I   I25       1.0  0.53505  0.95146  0.54744  1.0000
  I   I26       1.0  0.31125  0.81903  0.64279  1.0000
  I   I27       1.0  0.80860  0.26278  0.70496  1.0000
  I   I28       1.0  0.78111  0.46059  0.34456  1.0000
  I   I29       1.0  0.07398  0.81091  0.16417  1.0000
  I   I30       1.0  0.46381  0.94959  0.88255  1.0000
  I   I31       1.0  0.82214  0.41470  0.24307  1.0000
  I   I32       1.0  0.87322  0.33609  0.98555  1.0000
  I   I33       1.0  0.78398  0.36921  0.84592  1.0000
  I   I34       1.0  0.72921  0.60794  0.69737  1.0000
  I   I35       1.0  0.97504  0.09975  0.95466  1.0000
  I   I36       1.0  0.31646  0.32635  0.43998  1.0000
  I   I37       1.0  0.20922  0.31031  0.31610  1.0000
  I   I38       1.0  0.84189  0.57775  0.08617  1.0000
  I   I39       1.0  0.15641  0.34474  0.42235  1.0000
  I   I40       1.0  0.49048  0.43785  0.59009  1.0000
  I   I41       1.0  0.10253  0.17350  0.40126  1.0000
  I   I42       1.0  0.27653  0.34421  0.70320  1.0000
  I   I43       1.0  0.56728  0.31050  0.52031  1.0000
  I   I44       1.0  0.84793  0.53300  0.82729  1.0000
  I   I45       1.0  0.22273  0.66053  0.52071  1.0000
  I   I46       1.0  0.72439  0.38009  0.38743  1.0000
  I   I47       1.0  0.29532  0.55508  0.32642  1.0000
  I   I48       1.0  0.75784  0.16327  0.27402  1.0000
  I   I49       1.0  0.96080  0.24759  0.12030  1.0000
  I   I50       1.0  0.88643  0.01570  0.95330  1.0000
  I   I51       1.0  0.84538  0.08662  0.92753  1.0000
  I   I52       1.0  0.85789  0.35576  0.12878  1.0000
  I   I53       1.0  0.40252  0.74020  0.32374  1.0000
  I   I54       1.0  0.82280  0.83497  0.11742  1.0000
  I   I55       1.0  0.90788  0.39776  0.51545  1.0000
  I   I56       1.0  0.24650  0.87289  0.29119  1.0000
  I   I57       1.0  0.25335  0.03542  0.90817  1.0000
  I   I58       1.0  0.00980  0.76373  0.44393  1.0000
  I   I59       1.0  0.34145  0.24257  0.17028  1.0000
  I   I60       1.0  0.19044  0.63350  0.84423  1.0000
  I   I61       1.0  0.94576  0.05296  0.35360  1.0000
  I   I62       1.0  0.99671  0.07640  0.34622  1.0000
  I   I63       1.0  0.93383  0.09005  0.72995  1.0000
  I   I64       1.0  0.95804  0.75187  0.44252  1.0000
  I   I65       1.0  0.65309  0.91163  0.97518  1.0000
  I   I66       1.0  0.49174  0.13654  0.06017  1.0000
  I   I67       1.0  0.57670  0.57680  0.81545  1.0000
  I   I68       1.0  0.15396  0.12776  0.84055  1.0000
  I   I69       1.0  0.39685  0.80469  0.97686  1.0000
  I   I70       1.0  0.38503  0.89118  0.11509  1.0000
  I   I71       1.0  0.44406  0.10254  0.61730  1.0000
  I   I72       1.0  0.08026  0.18981  0.98200  1.0000
  I   I73       1.0  0.79646  0.20006  0.68170  1.0000
  I   I74       1.0  0.37884  0.73492  0.80174  1.0000
  I   I75       1.0  0.38721  0.77277  0.72627  1.0000
  I   I76       1.0  0.81126  0.48779  0.38922  1.0000
  I   I77       1.0  0.78486  0.48544  0.24219  1.0000
  I   I78       1.0  0.05455  0.86563  0.08878  1.0000
  I   I79       1.0  0.18752  0.80008  0.54861  1.0000
  I   I80       1.0  0.20034  0.49882  0.98608  1.0000
  I   I81       1.0  0.98022  0.29205  0.91569  1.0000
  I   I82       1.0  0.30514  0.42225  0.47153  1.0000
  I   I83       1.0  0.65051  0.66179  0.71663  1.0000
  I   I84       1.0  0.02023  0.08910  0.06011  1.0000
  I   I85       1.0  0.23579  0.32111  0.41344  1.0000
  I   I86       1.0  0.47162  0.25120  0.03303  1.0000
  I   I87       1.0  0.82808  0.63982  0.28273  1.0000
  I   I88       1.0  0.22616  0.40114  0.71652  1.0000
  I   I89       1.0  0.53297  0.52111  0.64165  1.0000
  I   I90       1.0  0.09688  0.13417  0.46494  1.0000
  I   I91       1.0  0.28551  0.68596  0.64940  1.0000
  I   I92       1.0  0.31469  0.53982  0.10314  1.0000
  I   I93       1.0  0.85289  0.58634  0.90337  1.0000
  I   I94       1.0  0.72488  0.13129  0.22958  1.0000
  I   I95       1.0  0.68496  0.30725  0.34501  1.0000
  I   I96       1.0  0.31335  0.52424  0.40870  1.0000
  I   I97       1.0  0.55412  0.97690  0.09275  1.0000
  I   I98       1.0  0.13221  0.76014  0.96136  1.0000
  I   I99       1.0  0.83560  0.03834  0.91546  1.0000
  I   I100      1.0  0.81098  0.34759  0.03809  1.0000
  I   I101      1.0  0.80751  0.11806  0.48981  1.0000
  I   I102      1.0  0.51044  0.82381  0.18566  1.0000
  I   I103      1.0  0.85400  0.42308  0.72582  1.0000
  I   I104      1.0  0.91096  0.34503  0.56293  1.0000
  I   I105      1.0  0.21464  0.04357  0.01035  1.0000
  I   I106      1.0  0.24339  0.54966  0.62969  1.0000
  I   I107      1.0  0.00748  0.74417  0.56793  1.0000
  I   I108      1.0  0.26041  0.57286  0.71562  1.0000
  I   I109      1.0  0.80426  0.95943  0.60200  1.0000
  I   I110      1.0  0.95482  0.13253  0.33258  1.0000
  I   I111      1.0  0.00192  0.96787  0.73484  1.0000
  I   I112      1.0  0.61683  0.86377  0.88953  1.0000
  I   I113      1.0  0.63613  0.97477  0.00361  1.0000
  I   I114      1.0  0.35608  0.03740  0.59404  1.0000
  I   I115      1.0  0.62671  0.53979  0.89007  1.0000
  I   I116      1.0  0.56529  0.52991  0.87592  1.0000
  I   I117      1.0  0.81441  0.52752  0.16139  1.0000
  I   I118      1.0  0.66063  0.82714  0.22200  1.0000
  I   I119      1.0  0.45459  0.83667  0.20821  1.0000
  I   I120      1.0  0.04218  0.17599  0.09150  1.0000
  I   I121      1.0  0.80612  0.22717  0.78179  1.0000
  I   I122      1.0  0.55705  0.87496  0.71454  1.0000
  I   I123      1.0  0.33669  0.81578  0.75813  1.0000
  I   I124      1.0  0.44653  0.02089  0.83895  1.0000
  I   I125      1.0  0.79740  0.44476  0.45876  1.0000
  I   I126      1.0  0.96718  0.84255  0.14591  1.0000
  I   I127      1.0  0.13157  0.86465  0.49382  1.0000
  I   I128      1.0  0.78509  0.37021  0.15230  1.0000
  I   I129      1.0  0.92802  0.27992  0.96441  1.0000
  I   I130      1.0  0.98513  0.15215  0.96801  1.0000
  I   I131      1.0  0.31158  0.37168  0.50398  1.0000
  I   I132      1.0  0.69102  0.59292  0.69258  1.0000
  I   I133      1.0  0.79709  0.60299  0.29781  1.0000
  I   I134      1.0  0.32808  0.43199  0.14283  1.0000
  I   I135      1.0  0.44543  0.25697  0.93650  1.0000
  I   I136      1.0  0.03964  0.26293  0.40358  1.0000
  I   I137      1.0  0.45742  0.41625  0.28038  1.0000
  I   I138      1.0  0.51044  0.48887  0.56969  1.0000
  I   I139      1.0  0.22613  0.67811  0.63903  1.0000
  I   I140      1.0  0.34848  0.52494  0.00103  1.0000
  I   I141      1.0  0.92052  0.58276  0.92999  1.0000
  I   I142      1.0  0.74697  0.22894  0.21447  1.0000
  I   I143      1.0  0.69332  0.35863  0.33011  1.0000
  I   I144      1.0  0.27524  0.54807  0.52366  1.0000
  I   I145      1.0  0.17214  0.77260  0.99854  1.0000
  I   I146      1.0  0.88575  0.00463  0.83964  1.0000
  I   I147      1.0  0.59650  0.94493  0.19536  1.0000
  I   I148      1.0  0.82166  0.09838  0.37776  1.0000
  I   I149      1.0  0.53377  0.84137  0.25445  1.0000
  I   I150      1.0  0.92881  0.78984  0.02301  1.0000
  I   I151      1.0  0.91082  0.41293  0.67081  1.0000
  I   I152      1.0  0.31747  0.86311  0.27666  1.0000
  I   I153      1.0  0.18476  0.11115  0.96439  1.0000
  I   I154      1.0  0.32597  0.90269  0.08738  1.0000
  I   I155      1.0  0.33348  0.12702  0.70266  1.0000
  I   I156      1.0  0.20175  0.66166  0.77026  1.0000
  I   I157      1.0  0.76198  0.00977  0.53418  1.0000
  I   I158      1.0  0.02224  0.01058  0.75269  1.0000
  I   I159      1.0  0.82806  0.96827  0.35258  1.0000
  I   I160      1.0  0.68934  0.80419  0.73893  1.0000
  I   I161      1.0  0.30122  0.06453  0.67033  1.0000
  I   I162      1.0  0.68931  0.77308  0.89185  1.0000
  I   I163      1.0  0.52878  0.58550  0.93108  1.0000
  I   I164      1.0  0.76796  0.50768  0.11997  1.0000
  I   I165      1.0  0.18927  0.95792  0.26743  1.0000
  I   I166      1.0  0.68230  0.76782  0.27677  1.0000
  I   I167      1.0  0.36394  0.13003  0.55615  1.0000
  I   I168      1.0  0.25633  0.84064  0.10084  1.0000
  I   I169      1.0  0.52782  0.88734  0.55915  1.0000
  I   I170      1.0  0.57652  0.91654  0.63490  1.0000
  I   I171      1.0  0.73661  0.28741  0.70377  1.0000
  I   I172      1.0  0.40004  0.04139  0.74911  1.0000
  I   I173      1.0  0.02800  0.80295  0.12946  1.0000
  I   I174      1.0  0.41388  0.98529  0.77675  1.0000
  I   I175      1.0  0.20430  0.50556  0.10650  1.0000
  I   I176      1.0  0.96909  0.27179  0.81978  1.0000
  I   I177      1.0  0.78074  0.32366  0.77045  1.0000
  I   I178      1.0  0.29196  0.42976  0.57582  1.0000
  I   I179      1.0  0.64153  0.66807  0.59392  1.0000
  I   I180      1.0  0.98347  0.06550  0.10754  1.0000
  I   I181      1.0  0.20780  0.27596  0.40599  1.0000
  I   I182      1.0  0.47777  0.19178  0.92932  1.0000
  I   I183      1.0  0.87449  0.52864  0.16266  1.0000
  I   I184      1.0  0.49831  0.44073  0.20228  1.0000
  I   I185      1.0  0.45159  0.49691  0.56590  1.0000
  I   I186      1.0  0.03814  0.19694  0.43073  1.0000
  I   I187      1.0  0.34215  0.58322  0.05530  1.0000
  I   I188      1.0  0.87018  0.55591  0.75402  1.0000
  I   I189      1.0  0.26280  0.69176  0.48513  1.0000
  I   I190      1.0  0.70393  0.31022  0.24212  1.0000
  I   I191      1.0  0.04228  0.34328  0.56987  1.0000
  I   I192      1.0  0.79152  0.09511  0.22454  1.0000
  I   I193      1.0  0.13158  0.79721  0.10146  1.0000
  I   I194      1.0  0.02314  0.29619  0.59390  1.0000
  I   I195      1.0  0.60897  0.91026  0.09111  1.0000
  I   I196      1.0  0.83734  0.31530  0.14863  1.0000
  I   I197      1.0  0.63440  0.28448  0.58410  1.0000
  I   I198      1.0  0.90140  0.77526  0.92099  1.0000
  I   I199      1.0  0.87202  0.42546  0.61315  1.0000
  I   I200      1.0  0.97733  0.43684  0.89621  1.0000
  I   I201      1.0  0.21020  0.01470  0.87092  1.0000
  I   I202      1.0  0.37117  0.28802  0.18312  1.0000
  I   I203      1.0  0.44922  0.74982  0.89245  1.0000
  I   I204      1.0  0.21830  0.58001  0.78057  1.0000
  I   I205      1.0  0.03743  0.09198  0.35412  1.0000
  I   I206      1.0  0.97927  0.00910  0.82141  1.0000
  I   I207      1.0  0.80230  0.99527  0.45644  1.0000
  I   I208      1.0  0.90143  0.80543  0.42228  1.0000
  I   I209      1.0  0.30562  0.03728  0.54653  1.0000
  I   I210      1.0  0.69657  0.74420  0.79056  1.0000
  I   I211      1.0  0.57743  0.60448  0.90629  1.0000
  I   I212      1.0  0.19150  0.10563  0.75848  1.0000
  I   I213      1.0  0.39241  0.75599  0.94203  1.0000
  I   I214      1.0  0.66792  0.82404  0.35867  1.0000
  I   I215      1.0  0.40143  0.06675  0.55988  1.0000
  I   I216      1.0  0.28522  0.81536  0.99442  1.0000
  I   I217      1.0  0.52221  0.84456  0.67825  1.0000
  I   I218      1.0  0.36694  0.76060  0.62993  1.0000
  I   I219      1.0  0.76510  0.25865  0.62096  1.0000
  I   I220      1.0  0.74421  0.51788  0.38214  1.0000
  I   I221      1.0  0.08459  0.79091  0.05306  1.0000
  I   I222      1.0  0.47143  0.96882  0.77368  1.0000
  I   I223      1.0  0.18491  0.56428  0.03598  1.0000
  I   I224      1.0  0.97769  0.22691  0.91832  1.0000
  I   I225      1.0  0.15675  0.81041  0.44497  1.0000
  I   I226      1.0  0.24568  0.45265  0.47744  1.0000
  I   I227      1.0  0.63330  0.62169  0.63240  1.0000
  I   I228      1.0  0.94784  0.11497  0.03663  1.0000
  I   I229      1.0  0.16620  0.39201  0.49337  1.0000
  I   I230      1.0  0.38712  0.42198  0.09167  1.0000
  I   I231      1.0  0.77556  0.64307  0.21173  1.0000
  I   I232      1.0  0.93664  0.02606  0.74912  1.0000
  I   I233      1.0  0.46361  0.55069  0.61264  1.0000
  I   I234      1.0  0.14582  0.14954  0.47942  1.0000
  I   I235      1.0  0.32298  0.90371  0.21176  1.0000
  I   I236      1.0  0.92305  0.55621  0.84157  1.0000
  I   I237      1.0  0.23531  0.69967  0.74232  1.0000
  I   I238      1.0  0.75053  0.31765  0.27904  1.0000
  I   I239      1.0  0.33302  0.55081  0.50997  1.0000
  I   I240      1.0  0.78560  0.15671  0.18629  1.0000
  I   I241      1.0  0.00959  0.26464  0.15982  1.0000
  I   I242      1.0  0.91495  0.04116  0.88440  1.0000
  I   I243      1.0  0.54099  0.92898  0.12881  1.0000
  I   I244      1.0  0.80890  0.05885  0.46813  1.0000
  I   I245      1.0  0.42502  0.66983  0.34048  1.0000
  I   I246      1.0  0.90390  0.76331  0.09235  1.0000
  I   I247      1.0  0.90947  0.36298  0.71963  1.0000
  I   I248      1.0  0.29511  0.84207  0.38112  1.0000
  I   I249      1.0  0.17099  0.06454  0.93528  1.0000
  I   I250      1.0  0.32054  0.30084  0.24840  1.0000
  I   I251      1.0  0.29276  0.16961  0.77802  1.0000
  I   I252      1.0  0.19741  0.61906  0.69088  1.0000
  I   I253      1.0  0.94328  0.08533  0.26251  1.0000
  I   I254      1.0  0.98158  0.00188  0.66139  1.0000
  I   I255      1.0  0.87301  0.96606  0.40006  1.0000
  I   I256      1.0  0.60011  0.98375  0.91919  1.0000
  I   I257      1.0  0.31418  0.09006  0.54513  1.0000
  I   I258      1.0  0.66909  0.83327  0.94803  1.0000
  I   I259      1.0  0.58356  0.54687  0.97010  1.0000
  I   I260      1.0  0.82797  0.49520  0.05535  1.0000
  I   I261      1.0  0.24990  0.92033  0.30968  1.0000
  I   I262      1.0  0.62151  0.81285  0.31465  1.0000
  I   I263      1.0  0.39008  0.08876  0.44889  1.0000
  I   I264      1.0  0.31395  0.84343  0.05409  1.0000
  I   I265      1.0  0.52124  0.91985  0.64132  1.0000
  I   I266      1.0  0.38968  0.78995  0.82529  1.0000
  I   I267      1.0  0.83107  0.16266  0.78892  1.0000
  I   I268      1.0  0.71790  0.51463  0.28330  1.0000
  I   I269      1.0  0.97260  0.89600  0.09385  1.0000
  I   I270      1.0  0.43900  0.99712  0.67469  1.0000
  I   I271      1.0  0.14425  0.53965  0.07743  1.0000
  I   I272      1.0  0.85554  0.34170  0.87571  1.0000
  I   I273      1.0  0.10958  0.81923  0.53492  1.0000
  I   I274      1.0  0.36900  0.34341  0.51750  1.0000
  I   I275      1.0  0.75154  0.55202  0.64224  1.0000
  I   I276      1.0  0.02411  0.03429  0.00026  1.0000
  I   I277      1.0  0.25044  0.39910  0.54495  1.0000
  I   I278      1.0  0.38070  0.37368  0.17240  1.0000
  I   I279      1.0  0.84227  0.56906  0.22719  1.0000
  I   I280      1.0  0.43919  0.48789  0.24676  1.0000
  I   I281      1.0  0.50927  0.47316  0.67430  1.0000
  I   I282      1.0  0.07932  0.21785  0.47830  1.0000
  I   I283      1.0  0.34062  0.85271  0.14787  1.0000
  I   I284      1.0  0.85915  0.60862  0.80831  1.0000
  I   I285      1.0  0.20373  0.71995  0.54909  1.0000
  I   I286      1.0  0.73770  0.29374  0.40050  1.0000
  I   I287      1.0  0.33111  0.57974  0.38543  1.0000
  I   I288      1.0  0.74193  0.15375  0.14375  1.0000
  I   I289      1.0  0.98112  0.22355  0.23729  1.0000
  I   I290      1.0  0.10083  0.26926  0.57706  1.0000
  I   I291      1.0  0.89494  0.07734  0.99247  1.0000
  I   I292      1.0  0.87230  0.06515  0.45708  1.0000
  I   I293      1.0  0.45598  0.69723  0.25584  1.0000
  I   I294      1.0  0.87304  0.82122  0.04925  1.0000
  I   I295      1.0  0.85640  0.39334  0.50958  1.0000
  I   I296      1.0  0.04218  0.37203  0.89697  1.0000
  I   I297      1.0  0.12964  0.11306  0.02667  1.0000
  I   I298      1.0  0.62156  0.31095  0.46801  1.0000
  I   I299      1.0  0.02551  0.70558  0.47961  1.0000
  I   I300      1.0  0.25610  0.61554  0.80884  1.0000
  I   I301      1.0  0.84553  0.91582  0.42819  1.0000
  I   I302      1.0  0.00767  0.10006  0.23501  1.0000
  I   I303      1.0  0.24011  0.32941  0.76660  1.0000
  I   I304      1.0  0.67755  0.83000  0.83203  1.0000
  I   I305      1.0  0.96032  0.80517  0.39632  1.0000
  I   I306      1.0  0.52976  0.13918  0.97951  1.0000
  I   I307      1.0  0.51752  0.61948  0.84894  1.0000
  I   I308      1.0  0.16623  0.06394  0.77608  1.0000
  I   I309      1.0  0.20106  0.91373  0.36915  1.0000
  I   I310      1.0  0.41351  0.90506  0.19771  1.0000
  I   I311      1.0  0.44832  0.15186  0.56607  1.0000
  I   I312      1.0  0.01308  0.22851  0.01682  1.0000
  I   I313      1.0  0.74902  0.23572  0.74734  1.0000
  I   I314      1.0  0.57055  0.85150  0.61992  1.0000
  I   I315      1.0  0.33268  0.76121  0.73200  1.0000
  I   I316      1.0  0.47305  0.01763  0.73187  1.0000
  I   I317      1.0  0.76202  0.50136  0.49022  1.0000
  I   I318      1.0  0.02200  0.83357  0.03109  1.0000
  I   I319      1.0  0.74011  0.33483  0.86998  1.0000
  I   I320      1.0  0.80313  0.40836  0.13275  1.0000
  I   I321      1.0  0.91312  0.28307  0.86097  1.0000
  I   I322      1.0  0.34178  0.30400  0.56571  1.0000
  I   I323      1.0  0.70361  0.63703  0.61090  1.0000
  I   I324      1.0  0.97607  0.14176  0.08592  1.0000
  I   I325      1.0  0.20045  0.33095  0.50547  1.0000
  I   I326      1.0  0.50869  0.22927  0.92897  1.0000
  I   I327      1.0  0.84501  0.61763  0.17303  1.0000
  I   I328      1.0  0.26314  0.37156  0.82063  1.0000
  I   I329      1.0  0.44919  0.47755  0.67079  1.0000
  I   I330      1.0  0.07381  0.22406  0.32445  1.0000
  I   I331      1.0  0.27526  0.64689  0.57982  1.0000
  I   I332      1.0  0.62744  0.24933  0.49111  1.0000
  I   I333      1.0  0.81101  0.58785  0.80406  1.0000
  I   I334      1.0  0.73969  0.20187  0.09320  1.0000
  I   I335      1.0  0.71330  0.34860  0.44018  1.0000
  I   I336      1.0  0.28265  0.60034  0.47411  1.0000
  I   I337      1.0  0.11520  0.82558  0.00236  1.0000
  I   I338      1.0  0.05975  0.30558  0.66104  1.0000
  I   I339      1.0  0.85525  0.08346  0.83497  1.0000
  I   I340      1.0  0.80312  0.37230  0.27679  1.0000
  I   I341      1.0  0.48056  0.88826  0.29213  1.0000
  I   I342      1.0  0.86628  0.77565  0.01119  1.0000
  I   I343      1.0  0.85589  0.38147  0.62854  1.0000
  I   I344      1.0  0.01458  0.43599  0.82302  1.0000
  I   I345      1.0  0.24125  0.98717  0.97558  1.0000
  I   I346      1.0  0.39502  0.84286  0.18406  1.0000
  I   I347      1.0  0.37645  0.23536  0.26634  1.0000
  I   I348      1.0  0.18793  0.55830  0.68250  1.0000
  I   I349      1.0  0.84592  0.95328  0.51040  1.0000
  I   I350      1.0  0.90572  0.11393  0.35576  1.0000
  I   I351      1.0  0.99215  0.05078  0.68732  1.0000
  I   I352      1.0  0.62102  0.81670  0.93463  1.0000
  I   I353      1.0  0.66829  0.94878  0.89143  1.0000
  I   I354      1.0  0.45985  0.15100  0.96367  1.0000
  I   I355      1.0  0.52157  0.55975  0.80277  1.0000
  I   I356      1.0  0.76678  0.56216  0.07122  1.0000
  I   I357      1.0  0.42832  0.80960  0.90221  1.0000
  I   I358      1.0  0.25717  0.89373  0.04011  1.0000
  I   I359      1.0  0.41756  0.12681  0.49409  1.0000
  I   I360      1.0  0.03353  0.16647  0.97706  1.0000
  I   I361      1.0  0.76812  0.19391  0.82921  1.0000
  I   I362      1.0  0.58769  0.88500  0.53081  1.0000
  I   I363      1.0  0.33028  0.78126  0.85611  1.0000
  I   I364      1.0  0.40618  0.99128  0.88672  1.0000
  I   I365      1.0  0.76625  0.53401  0.29834  1.0000
  I   I366      1.0  0.01215  0.86029  0.17738  1.0000
  I   I367      1.0  0.72503  0.36432  0.76569  1.0000
  I   I368      1.0  0.75355  0.41984  0.22638  1.0000
  I   I369      1.0  0.86297  0.28857  0.95240  1.0000
  I   I370      1.0  0.37680  0.29458  0.45938  1.0000
  I   I371      1.0  0.71080  0.59526  0.54808  1.0000
  I   I372      1.0  0.96359  0.05779  0.99148  1.0000
  I   I373      1.0  0.18333  0.37483  0.35991  1.0000
  I   I374      1.0  0.35866  0.37426  0.05896  1.0000
  I   I375      1.0  0.90357  0.56738  0.16254  1.0000
  I   I376      1.0  0.48919  0.45346  0.31899  1.0000
  I   I377      1.0  0.49364  0.53643  0.71950  1.0000
  I   I378      1.0  0.08799  0.17941  0.55620  1.0000
  I   I379      1.0  0.28279  0.63036  0.70078  1.0000
  I   I380      1.0  0.37409  0.52827  0.12927  1.0000
  I   I381      1.0  0.87021  0.63862  0.88832  1.0000
  I   I382      1.0  0.70827  0.19982  0.20263  1.0000
  I   I383      1.0  0.77819  0.32157  0.39877  1.0000
  I   I384      1.0  0.26546  0.61431  0.34411  1.0000
