data_image0
_chemical_formula_structural       Ti96I384
_chemical_formula_sum              "Ti96 I384"
_cell_length_a       46.3388
_cell_length_b       46.0037
_cell_length_c       22.8777
_cell_angle_alpha    88.7757
_cell_angle_beta     88.7757
_cell_angle_gamma    62.1586

_space_group_name_H-M_alt    "P 1"
_space_group_IT_number       1

loop_
  _space_group_symop_operation_xyz
  'x, y, z'

loop_
  _atom_site_type_symbol
  _atom_site_label
  _atom_site_symmetry_multiplicity
  _atom_site_fract_x
  _atom_site_fract_y
  _atom_site_fract_z
  _atom_site_occupancy
  Ti  Ti1       1.0  0.32867  0.04293  0.67747  1.0000
  Ti  Ti2       1.0  0.23898  0.00230  0.05337  1.0000
  Ti  Ti3       1.0  0.28675  0.01069  0.35159  1.0000
  Ti  Ti4       1.0  0.20894  0.23979  0.28689  1.0000
  Ti  Ti5       1.0  0.18608  0.28155  0.63841  1.0000
  Ti  Ti6       1.0  0.22566  0.25132  0.94718  1.0000
  Ti  Ti7       1.0  0.04155  0.63628  0.53562  1.0000
  Ti  Ti8       1.0  0.91752  0.76386  0.73473  1.0000
  Ti  Ti9       1.0  0.98167  0.73410  0.23958  1.0000
  Ti  Ti10      1.0  0.98183  0.95536  0.24924  1.0000
  Ti  Ti11      1.0  0.11901  0.89129  0.58958  1.0000
  Ti  Ti12      1.0  0.13695  0.84291  0.82723  1.0000
  Ti  Ti13      1.0  0.42482  0.20994  0.21502  1.0000
  Ti  Ti14      1.0  0.44091  0.13299  0.59379  1.0000
  Ti  Ti15      1.0  0.44797  0.12661  0.92619  1.0000
  Ti  Ti16      1.0  0.34763  0.42307  0.94293  1.0000
  Ti  Ti17      1.0  0.20787  0.47777  0.14156  1.0000
  Ti  Ti18      1.0  0.45275  0.44588  0.71198  1.0000
  Ti  Ti19      1.0  0.29781  0.82829  0.25045  1.0000
  Ti  Ti20      1.0  0.48931  0.62569  0.89637  1.0000
  Ti  Ti21      1.0  0.27901  0.68070  0.34790  1.0000
  Ti  Ti22      1.0  0.34442  0.85277  0.71425  1.0000
  Ti  Ti23      1.0  0.43955  0.91647  0.08271  1.0000
  Ti  Ti24      1.0  0.51054  0.72637  0.61910  1.0000
  Ti  Ti25      1.0  0.65445  0.21382  0.45847  1.0000
  Ti  Ti26      1.0  0.63896  0.19935  0.79586  1.0000
  Ti  Ti27      1.0  0.64651  0.19838  0.13160  1.0000
  Ti  Ti28      1.0  0.60629  0.39867  0.08723  1.0000
  Ti  Ti29      1.0  0.72294  0.38800  0.53232  1.0000
  Ti  Ti30      1.0  0.65850  0.44054  0.81051  1.0000
  Ti  Ti31      1.0  0.61854  0.61108  0.29875  1.0000
  Ti  Ti32      1.0  0.67437  0.61874  0.67143  1.0000
  Ti  Ti33      1.0  0.71927  0.57013  0.01923  1.0000
  Ti  Ti34      1.0  0.75830  0.73248  0.14939  1.0000
  Ti  Ti35      1.0  0.73400  0.75676  0.50902  1.0000
  Ti  Ti36      1.0  0.73419  0.73964  0.83211  1.0000
  Ti  Ti37      1.0  0.85233  0.13933  0.11386  1.0000
  Ti  Ti38      1.0  0.84822  0.13461  0.41444  1.0000
  Ti  Ti39      1.0  0.86861  0.13321  0.79192  1.0000
  Ti  Ti40      1.0  0.93537  0.33256  0.01696  1.0000
  Ti  Ti41      1.0  0.98750  0.23086  0.43767  1.0000
  Ti  Ti42      1.0  0.14162  0.08926  0.53652  1.0000
  Ti  Ti43      1.0  0.94382  0.46788  0.27274  1.0000
  Ti  Ti44      1.0  0.90334  0.47496  0.62431  1.0000
  Ti  Ti45      1.0  0.92596  0.51318  0.95233  1.0000
  Ti  Ti46      1.0  0.77878  0.97470  0.26223  1.0000
  Ti  Ti47      1.0  0.75797  0.95620  0.61081  1.0000
  Ti  Ti48      1.0  0.68890  0.97327  0.92167  1.0000
  Ti  Ti49      1.0  0.29364  0.06609  0.52951  1.0000
  Ti  Ti50      1.0  0.18901  0.03113  0.91095  1.0000
  Ti  Ti51      1.0  0.20246  0.05443  0.22137  1.0000
  Ti  Ti52      1.0  0.17271  0.27078  0.11218  1.0000
  Ti  Ti53      1.0  0.09701  0.29200  0.53642  1.0000
  Ti  Ti54      1.0  0.15082  0.28349  0.80514  1.0000
  Ti  Ti55      1.0  0.96791  0.69867  0.41259  1.0000
  Ti  Ti56      1.0  0.98632  0.79632  0.73428  1.0000
  Ti  Ti57      1.0  0.92503  0.75651  0.10678  1.0000
  Ti  Ti58      1.0  0.95571  0.97084  0.08436  1.0000
  Ti  Ti59      1.0  0.98138  0.90890  0.40705  1.0000
  Ti  Ti60      1.0  0.15497  0.80948  0.66612  1.0000
  Ti  Ti61      1.0  0.42307  0.22146  0.03502  1.0000
  Ti  Ti62      1.0  0.39305  0.27094  0.34618  1.0000
  Ti  Ti63      1.0  0.40178  0.16697  0.74835  1.0000
  Ti  Ti64      1.0  0.37242  0.42149  0.76196  1.0000
  Ti  Ti65      1.0  0.23956  0.46003  0.96227  1.0000
  Ti  Ti66      1.0  0.14761  0.45560  0.23750  1.0000
  Ti  Ti67      1.0  0.26051  0.77244  0.24584  1.0000
  Ti  Ti68      1.0  0.39595  0.64524  0.99027  1.0000
  Ti  Ti69      1.0  0.24692  0.61793  0.31438  1.0000
  Ti  Ti70      1.0  0.43575  0.79467  0.65887  1.0000
  Ti  Ti71      1.0  0.45780  0.96101  0.96446  1.0000
  Ti  Ti72      1.0  0.45419  0.86444  0.22103  1.0000
  Ti  Ti73      1.0  0.60427  0.19816  0.29788  1.0000
  Ti  Ti74      1.0  0.59329  0.20695  0.61834  1.0000
  Ti  Ti75      1.0  0.58411  0.21038  0.97888  1.0000
  Ti  Ti76      1.0  0.57069  0.45383  0.90280  1.0000
  Ti  Ti77      1.0  0.56486  0.40858  0.26597  1.0000
  Ti  Ti78      1.0  0.63169  0.44886  0.61570  1.0000
  Ti  Ti79      1.0  0.62203  0.62985  0.10273  1.0000
  Ti  Ti80      1.0  0.56633  0.57821  0.37108  1.0000
  Ti  Ti81      1.0  0.66424  0.62731  0.84469  1.0000
  Ti  Ti82      1.0  0.69717  0.78109  0.99833  1.0000
  Ti  Ti83      1.0  0.68110  0.80332  0.34663  1.0000
  Ti  Ti84      1.0  0.66951  0.79511  0.67024  1.0000
  Ti  Ti85      1.0  0.81434  0.19381  0.94733  1.0000
  Ti  Ti86      1.0  0.81631  0.19903  0.26753  1.0000
  Ti  Ti87      1.0  0.84029  0.17801  0.60623  1.0000
  Ti  Ti88      1.0  0.87116  0.37539  0.93522  1.0000
  Ti  Ti89      1.0  0.89205  0.30937  0.46091  1.0000
  Ti  Ti90      1.0  0.03022  0.13266  0.46387  1.0000
  Ti  Ti91      1.0  0.93607  0.59431  0.99574  1.0000
  Ti  Ti92      1.0  0.92784  0.49604  0.44769  1.0000
  Ti  Ti93      1.0  0.91710  0.53234  0.76951  1.0000
  Ti  Ti94      1.0  0.63668  0.97900  0.05849  1.0000
  Ti  Ti95      1.0  0.74485  0.94644  0.41544  1.0000
  Ti  Ti96      1.0  0.67032  0.97228  0.71245  1.0000
  I   I1        1.0  0.20628  0.99330  0.82019  1.0000
  I   I2        1.0  0.18766  0.01631  0.14968  1.0000
  I   I3        1.0  0.25203  0.04390  0.45673  1.0000
  I   I4        1.0  0.08453  0.24385  0.54688  1.0000
  I   I5        1.0  0.15241  0.25025  0.71194  1.0000
  I   I6        1.0  0.18618  0.23027  0.00581  1.0000
  I   I7        1.0  0.02779  0.77331  0.82291  1.0000
  I   I8        1.0  0.87475  0.76359  0.81557  1.0000
  I   I9        1.0  0.95371  0.68923  0.30350  1.0000
  I   I10       1.0  0.95383  0.97660  0.35053  1.0000
  I   I11       1.0  0.17728  0.82266  0.56370  1.0000
  I   I12       1.0  0.95439  0.91812  0.04187  1.0000
  I   I13       1.0  0.37983  0.27439  0.21750  1.0000
  I   I14       1.0  0.37189  0.15287  0.65112  1.0000
  I   I15       1.0  0.39556  0.18592  0.96979  1.0000
  I   I16       1.0  0.29353  0.41635  0.89619  1.0000
  I   I17       1.0  0.16350  0.44839  0.11684  1.0000
  I   I18       1.0  0.43075  0.38546  0.68827  1.0000
  I   I19       1.0  0.47804  0.68043  0.84517  1.0000
  I   I20       1.0  0.19003  0.62451  0.29567  1.0000
  I   I21       1.0  0.22538  0.74410  0.33221  1.0000
  I   I22       1.0  0.46103  0.96488  0.84994  1.0000
  I   I23       1.0  0.38691  0.95084  0.02707  1.0000
  I   I24       1.0  0.45038  0.72737  0.68491  1.0000
  I   I25       1.0  0.62485  0.17341  0.52392  1.0000
  I   I26       1.0  0.59479  0.18241  0.85597  1.0000
  I   I27       1.0  0.61985  0.15696  0.20120  1.0000
  I   I28       1.0  0.54197  0.42900  0.14283  1.0000
  I   I29       1.0  0.65783  0.39749  0.54381  1.0000
  I   I30       1.0  0.59243  0.42400  0.80107  1.0000
  I   I31       1.0  0.57382  0.58949  0.25526  1.0000
  I   I32       1.0  0.65502  0.58427  0.75159  1.0000
  I   I33       1.0  0.65595  0.57417  0.03814  1.0000
  I   I34       1.0  0.68081  0.77433  0.24698  1.0000
  I   I35       1.0  0.66858  0.76434  0.57298  1.0000
  I   I36       1.0  0.67926  0.75555  0.91129  1.0000
  I   I37       1.0  0.78998  0.19872  0.15521  1.0000
  I   I38       1.0  0.80771  0.18067  0.50417  1.0000
  I   I39       1.0  0.80440  0.19119  0.82870  1.0000
  I   I40       1.0  0.90558  0.34923  0.39560  1.0000
  I   I41       1.0  0.99725  0.17445  0.37948  1.0000
  I   I42       1.0  0.85173  0.35013  0.02372  1.0000
  I   I43       1.0  0.88939  0.51758  0.34906  1.0000
  I   I44       1.0  0.88286  0.54194  0.65817  1.0000
  I   I45       1.0  0.88143  0.58673  0.98031  1.0000
  I   I46       1.0  0.79480  0.91481  0.34488  1.0000
  I   I47       1.0  0.72038  0.92570  0.65636  1.0000
  I   I48       1.0  0.63890  0.95397  0.94246  1.0000
  I   I49       1.0  0.33413  0.08094  0.57628  1.0000
  I   I50       1.0  0.18229  0.06454  0.01752  1.0000
  I   I51       1.0  0.24673  0.07799  0.29601  1.0000
  I   I52       1.0  0.19041  0.29503  0.21668  1.0000
  I   I53       1.0  0.11831  0.32720  0.60360  1.0000
  I   I54       1.0  0.17372  0.31022  0.91050  1.0000
  I   I55       1.0  0.97793  0.71141  0.52847  1.0000
  I   I56       1.0  0.93087  0.80756  0.66227  1.0000
  I   I57       1.0  0.91578  0.77015  0.23269  1.0000
  I   I58       1.0  0.99300  0.00352  0.21666  1.0000
  I   I59       1.0  0.92415  0.92312  0.45112  1.0000
  I   I60       1.0  0.10311  0.81610  0.75510  1.0000
  I   I61       1.0  0.46405  0.22312  0.12170  1.0000
  I   I62       1.0  0.42564  0.25324  0.44611  1.0000
  I   I63       1.0  0.44950  0.16940  0.82502  1.0000
  I   I64       1.0  0.33154  0.46642  0.82781  1.0000
  I   I65       1.0  0.18618  0.51522  0.04343  1.0000
  I   I66       1.0  0.14622  0.47742  0.35045  1.0000
  I   I67       1.0  0.28542  0.79267  0.16042  1.0000
  I   I68       1.0  0.50587  0.59594  0.79867  1.0000
  I   I69       1.0  0.24913  0.65224  0.21523  1.0000
  I   I70       1.0  0.40023  0.86416  0.66835  1.0000
  I   I71       1.0  0.47314  0.95093  0.09475  1.0000
  I   I72       1.0  0.47273  0.80181  0.22192  1.0000
  I   I73       1.0  0.59845  0.24219  0.38407  1.0000
  I   I74       1.0  0.58317  0.24440  0.72995  1.0000
  I   I75       1.0  0.58364  0.23697  0.08496  1.0000
  I   I76       1.0  0.57567  0.46345  0.02381  1.0000
  I   I77       1.0  0.51258  0.40314  0.28009  1.0000
  I   I78       1.0  0.62243  0.48253  0.71853  1.0000
  I   I79       1.0  0.60249  0.66052  0.20882  1.0000
  I   I80       1.0  0.55643  0.59653  0.48468  1.0000
  I   I81       1.0  0.67533  0.65691  0.93074  1.0000
  I   I82       1.0  0.74172  0.78728  0.07081  1.0000
  I   I83       1.0  0.68553  0.82314  0.47012  1.0000
  I   I84       1.0  0.70790  0.80299  0.78069  1.0000
  I   I85       1.0  0.85217  0.19308  0.04829  1.0000
  I   I86       1.0  0.84128  0.19464  0.38389  1.0000
  I   I87       1.0  0.87361  0.18120  0.70417  1.0000
  I   I88       1.0  0.92932  0.37721  0.92620  1.0000
  I   I89       1.0  0.91714  0.24811  0.50417  1.0000
  I   I90       1.0  0.08457  0.07833  0.54748  1.0000
  I   I91       1.0  0.92573  0.61432  0.10054  1.0000
  I   I92       1.0  0.96166  0.47355  0.55452  1.0000
  I   I93       1.0  0.96084  0.52386  0.86149  1.0000
  I   I94       1.0  0.57544  0.00317  0.03420  1.0000
  I   I95       1.0  0.71566  0.98920  0.50595  1.0000
  I   I96       1.0  0.65256  0.01354  0.81327  1.0000
  I   I97       1.0  0.32478  0.02873  0.41279  1.0000
  I   I98       1.0  0.32479  0.09138  0.74645  1.0000
  I   I99       1.0  0.25793  0.03111  0.13468  1.0000
  I   I100      1.0  0.21827  0.28384  0.06340  1.0000
  I   I101      1.0  0.18722  0.20380  0.33374  1.0000
  I   I102      1.0  0.19696  0.29841  0.74570  1.0000
  I   I103      1.0  0.97170  0.75584  0.34809  1.0000
  I   I104      1.0  0.01180  0.61584  0.60869  1.0000
  I   I105      1.0  0.90407  0.81833  0.09697  1.0000
  I   I106      1.0  0.07968  0.89269  0.86527  1.0000
  I   I107      1.0  0.03827  0.91498  0.29626  1.0000
  I   I108      1.0  0.13217  0.87661  0.71251  1.0000
  I   I109      1.0  0.47440  0.15414  0.01072  1.0000
  I   I110      1.0  0.46168  0.22641  0.28977  1.0000
  I   I111      1.0  0.44982  0.10535  0.71817  1.0000
  I   I112      1.0  0.42257  0.43634  0.81567  1.0000
  I   I113      1.0  0.28990  0.47435  0.00377  1.0000
  I   I114      1.0  0.16258  0.52649  0.20313  1.0000
  I   I115      1.0  0.30221  0.70336  0.25616  1.0000
  I   I116      1.0  0.28595  0.86944  0.16481  1.0000
  I   I117      1.0  0.45763  0.59204  0.94521  1.0000
  I   I118      1.0  0.49619  0.78805  0.69522  1.0000
  I   I119      1.0  0.30982  0.90265  0.65084  1.0000
  I   I120      1.0  0.41225  0.93506  0.20218  1.0000
  I   I121      1.0  0.63437  0.23539  0.23453  1.0000
  I   I122      1.0  0.62663  0.24142  0.56520  1.0000
  I   I123      1.0  0.62265  0.23923  0.90597  1.0000
  I   I124      1.0  0.63644  0.45482  0.91836  1.0000
  I   I125      1.0  0.61754  0.41853  0.20205  1.0000
  I   I126      1.0  0.68611  0.45959  0.56845  1.0000
  I   I127      1.0  0.68471  0.62719  0.08951  1.0000
  I   I128      1.0  0.56468  0.65723  0.35465  1.0000
  I   I129      1.0  0.71677  0.60274  0.76811  1.0000
  I   I130      1.0  0.77106  0.74233  0.93567  1.0000
  I   I131      1.0  0.77413  0.76670  0.21718  1.0000
  I   I132      1.0  0.75455  0.76663  0.60630  1.0000
  I   I133      1.0  0.87722  0.17278  0.87895  1.0000
  I   I134      1.0  0.87291  0.14444  0.21760  1.0000
  I   I135      1.0  0.88705  0.12505  0.52781  1.0000
  I   I136      1.0  0.16277  0.13503  0.54790  1.0000
  I   I137      1.0  0.00111  0.30999  0.01494  1.0000
  I   I138      1.0  0.01486  0.18978  0.52813  1.0000
  I   I139      1.0  0.96833  0.51974  0.02697  1.0000
  I   I140      1.0  0.94135  0.43715  0.39117  1.0000
  I   I141      1.0  0.92844  0.46746  0.73836  1.0000
  I   I142      1.0  0.64663  0.02953  0.99011  1.0000
  I   I143      1.0  0.76351  0.99935  0.38250  1.0000
  I   I144      1.0  0.71687  0.99745  0.69557  1.0000
  I   I145      1.0  0.33466  0.99920  0.58482  1.0000
  I   I146      1.0  0.20307  0.97622  0.00407  1.0000
  I   I147      1.0  0.23738  0.99998  0.30448  1.0000
  I   I148      1.0  0.22641  0.20677  0.17510  1.0000
  I   I149      1.0  0.16528  0.24971  0.54420  1.0000
  I   I150      1.0  0.21745  0.22582  0.85366  1.0000
  I   I151      1.0  0.03702  0.65814  0.40764  1.0000
  I   I152      1.0  0.89223  0.74846  0.65107  1.0000
  I   I153      1.0  0.97618  0.69687  0.15540  1.0000
  I   I154      1.0  0.91985  0.98643  0.18660  1.0000
  I   I155      1.0  0.06133  0.92773  0.63667  1.0000
  I   I156      1.0  0.20617  0.79182  0.73095  1.0000
  I   I157      1.0  0.39218  0.20327  0.12769  1.0000
  I   I158      1.0  0.42751  0.15863  0.49006  1.0000
  I   I159      1.0  0.40161  0.12409  0.84065  1.0000
  I   I160      1.0  0.39156  0.37867  0.86428  1.0000
  I   I161      1.0  0.25133  0.41695  0.06758  1.0000
  I   I162      1.0  0.45440  0.46848  0.60574  1.0000
  I   I163      1.0  0.31350  0.76353  0.32034  1.0000
  I   I164      1.0  0.37616  0.60285  0.99275  1.0000
  I   I165      1.0  0.23535  0.66531  0.40547  1.0000
  I   I166      1.0  0.40095  0.80258  0.77099  1.0000
  I   I167      1.0  0.47807  0.89638  0.98405  1.0000
  I   I168      1.0  0.49823  0.69018  0.54659  1.0000
  I   I169      1.0  0.66769  0.16779  0.37633  1.0000
  I   I170      1.0  0.65401  0.16753  0.68144  1.0000
  I   I171      1.0  0.64488  0.16226  0.03580  1.0000
  I   I172      1.0  0.59220  0.38990  0.97423  1.0000
  I   I173      1.0  0.71010  0.40620  0.42165  1.0000
  I   I174      1.0  0.67684  0.40533  0.70400  1.0000
  I   I175      1.0  0.64348  0.57768  0.19616  1.0000
  I   I176      1.0  0.63581  0.62659  0.58375  1.0000
  I   I177      1.0  0.71095  0.55736  0.90695  1.0000
  I   I178      1.0  0.71924  0.72249  0.06754  1.0000
  I   I179      1.0  0.71466  0.74211  0.39737  1.0000
  I   I180      1.0  0.70943  0.73208  0.71595  1.0000
  I   I181      1.0  0.82028  0.13973  0.00403  1.0000
  I   I182      1.0  0.79644  0.15492  0.32322  1.0000
  I   I183      1.0  0.84536  0.12098  0.68199  1.0000
  I   I184      1.0  0.90429  0.38837  0.07699  1.0000
  I   I185      1.0  0.93461  0.25796  0.35817  1.0000
  I   I186      1.0  0.09526  0.13597  0.46046  1.0000
  I   I187      1.0  0.94361  0.51950  0.22778  1.0000
  I   I188      1.0  0.87399  0.49326  0.51536  1.0000
  I   I189      1.0  0.88956  0.51340  0.85389  1.0000
  I   I190      1.0  0.77970  0.93621  0.17840  1.0000
  I   I191      1.0  0.79372  0.92119  0.50818  1.0000
  I   I192      1.0  0.70594  0.93515  0.82824  1.0000
  I   I193      1.0  0.39111  0.00001  0.69177  1.0000
  I   I194      1.0  0.25516  0.01808  0.94402  1.0000
  I   I195      1.0  0.32395  0.00388  0.26606  1.0000
  I   I196      1.0  0.20716  0.26299  0.39054  1.0000
  I   I197      1.0  0.20377  0.31793  0.57139  1.0000
  I   I198      1.0  0.27005  0.26390  0.90210  1.0000
  I   I199      1.0  0.08056  0.64870  0.60205  1.0000
  I   I200      1.0  0.93266  0.80053  0.81504  1.0000
  I   I201      1.0  0.99165  0.78210  0.18351  1.0000
  I   I202      1.0  0.00685  0.91284  0.15951  1.0000
  I   I203      1.0  0.15960  0.91851  0.60030  1.0000
  I   I204      1.0  0.17626  0.86443  0.86619  1.0000
  I   I205      1.0  0.47837  0.15219  0.20908  1.0000
  I   I206      1.0  0.50504  0.10691  0.57772  1.0000
  I   I207      1.0  0.49141  0.06876  0.90042  1.0000
  I   I208      1.0  0.38648  0.44529  0.97536  1.0000
  I   I209      1.0  0.24928  0.49691  0.18118  1.0000
  I   I210      1.0  0.46911  0.48581  0.76285  1.0000
  I   I211      1.0  0.36001  0.80358  0.24581  1.0000
  I   I212      1.0  0.45038  0.66533  0.99709  1.0000
  I   I213      1.0  0.32809  0.62272  0.35284  1.0000
  I   I214      1.0  0.32904  0.88403  0.81438  1.0000
  I   I215      1.0  0.49673  0.85982  0.12287  1.0000
  I   I216      1.0  0.55327  0.73404  0.54851  1.0000
  I   I217      1.0  0.67476  0.25025  0.40741  1.0000
  I   I218      1.0  0.67788  0.22756  0.76960  1.0000
  I   I219      1.0  0.66442  0.23813  0.08692  1.0000
  I   I220      1.0  0.66725  0.38498  0.05393  1.0000
  I   I221      1.0  0.76191  0.39503  0.60662  1.0000
  I   I222      1.0  0.69954  0.46358  0.79545  1.0000
  I   I223      1.0  0.65717  0.63502  0.33677  1.0000
  I   I224      1.0  0.69384  0.66121  0.62092  1.0000
  I   I225      1.0  0.76451  0.58858  0.00069  1.0000
  I   I226      1.0  0.81774  0.69533  0.10768  1.0000
  I   I227      1.0  0.78238  0.76295  0.45736  1.0000
  I   I228      1.0  0.79094  0.73038  0.77863  1.0000
  I   I229      1.0  0.91576  0.09228  0.09983  1.0000
  I   I230      1.0  0.90275  0.08817  0.38065  1.0000
  I   I231      1.0  0.93074  0.09924  0.78198  1.0000
  I   I232      1.0  0.92393  0.30294  0.92877  1.0000
  I   I233      1.0  0.96228  0.29170  0.49355  1.0000
  I   I234      1.0  0.17528  0.03653  0.48034  1.0000
  I   I235      1.0  0.99804  0.42396  0.21873  1.0000
  I   I236      1.0  0.92414  0.41582  0.58908  1.0000
  I   I237      1.0  0.96416  0.44813  0.95710  1.0000
  I   I238      1.0  0.75900  0.02992  0.20761  1.0000
  I   I239      1.0  0.77286  0.00400  0.59444  1.0000
  I   I240      1.0  0.73216  0.99316  0.92421  1.0000
  I   I241      1.0  0.32302  0.00837  0.76819  1.0000
  I   I242      1.0  0.29865  0.95580  0.07238  1.0000
  I   I243      1.0  0.30537  0.95136  0.39583  1.0000
  I   I244      1.0  0.27195  0.21172  0.29145  1.0000
  I   I245      1.0  0.24036  0.22471  0.64406  1.0000
  I   I246      1.0  0.27614  0.19153  0.99363  1.0000
  I   I247      1.0  0.08458  0.58034  0.49426  1.0000
  I   I248      1.0  0.95918  0.70437  0.77286  1.0000
  I   I249      1.0  0.04446  0.68130  0.25065  1.0000
  I   I250      1.0  0.97263  0.89205  0.29241  1.0000
  I   I251      1.0  0.11913  0.88613  0.47595  1.0000
  I   I252      1.0  0.15264  0.79171  0.88793  1.0000
  I   I253      1.0  0.39189  0.20060  0.30267  1.0000
  I   I254      1.0  0.44096  0.07696  0.55375  1.0000
  I   I255      1.0  0.42338  0.10604  0.01851  1.0000
  I   I256      1.0  0.36002  0.38660  0.03700  1.0000
  I   I257      1.0  0.21903  0.43162  0.23360  1.0000
  I   I258      1.0  0.51209  0.39391  0.70737  1.0000
  I   I259      1.0  0.27831  0.87175  0.33692  1.0000
  I   I260      1.0  0.54439  0.59451  0.93972  1.0000
  I   I261      1.0  0.30095  0.70098  0.43142  1.0000
  I   I262      1.0  0.30936  0.82210  0.73056  1.0000
  I   I263      1.0  0.41796  0.86980  0.10076  1.0000
  I   I264      1.0  0.54490  0.68158  0.69140  1.0000
  I   I265      1.0  0.70822  0.18007  0.52209  1.0000
  I   I266      1.0  0.69450  0.15416  0.83902  1.0000
  I   I267      1.0  0.70124  0.14911  0.17367  1.0000
  I   I268      1.0  0.61221  0.34435  0.12357  1.0000
  I   I269      1.0  0.75161  0.32671  0.52052  1.0000
  I   I270      1.0  0.69613  0.38169  0.85532  1.0000
  I   I271      1.0  0.63822  0.55875  0.37756  1.0000
  I   I272      1.0  0.71488  0.56239  0.62943  1.0000
  I   I273      1.0  0.74496  0.51357  0.06050  1.0000
  I   I274      1.0  0.75970  0.68779  0.22175  1.0000
  I   I275      1.0  0.75636  0.69521  0.53261  1.0000
  I   I276      1.0  0.75879  0.67770  0.84363  1.0000
  I   I277      1.0  0.83445  0.09284  0.14620  1.0000
  I   I278      1.0  0.82267  0.09985  0.46399  1.0000
  I   I279      1.0  0.86461  0.09084  0.85900  1.0000
  I   I280      1.0  0.93618  0.29039  0.10150  1.0000
  I   I281      1.0  0.03134  0.24422  0.38478  1.0000
  I   I282      1.0  0.15364  0.06353  0.64511  1.0000
  I   I283      1.0  0.90581  0.46005  0.19872  1.0000
  I   I284      1.0  0.84814  0.47261  0.66546  1.0000
  I   I285      1.0  0.88199  0.51468  0.02884  1.0000
  I   I286      1.0  0.84130  0.95645  0.25484  1.0000
  I   I287      1.0  0.80802  0.91725  0.66827  1.0000
  I   I288      1.0  0.71127  0.93848  0.02473  1.0000
  I   I289      1.0  0.25904  0.07780  0.62676  1.0000
  I   I290      1.0  0.13172  0.03603  0.92464  1.0000
  I   I291      1.0  0.15797  0.06875  0.30146  1.0000
  I   I292      1.0  0.14076  0.24134  0.16110  1.0000
  I   I293      1.0  0.03493  0.34061  0.56228  1.0000
  I   I294      1.0  0.10928  0.27236  0.85796  1.0000
  I   I295      1.0  0.98752  0.63413  0.44839  1.0000
  I   I296      1.0  0.02556  0.78435  0.64576  1.0000
  I   I297      1.0  0.95273  0.73220  0.00429  1.0000
  I   I298      1.0  0.90502  0.01422  0.02864  1.0000
  I   I299      1.0  0.99718  0.93867  0.48559  1.0000
  I   I300      1.0  0.16729  0.74597  0.63719  1.0000
  I   I301      1.0  0.36373  0.27418  0.03637  1.0000
  I   I302      1.0  0.34399  0.27022  0.39859  1.0000
  I   I303      1.0  0.36418  0.22490  0.78955  1.0000
  I   I304      1.0  0.33591  0.39885  0.72423  1.0000
  I   I305      1.0  0.20204  0.43288  0.94803  1.0000
  I   I306      1.0  0.13578  0.40649  0.26658  1.0000
  I   I307      1.0  0.22031  0.83113  0.28746  1.0000
  I   I308      1.0  0.36386  0.68554  0.90558  1.0000
  I   I309      1.0  0.29489  0.56275  0.26287  1.0000
  I   I310      1.0  0.38256  0.80284  0.61263  1.0000
  I   I311      1.0  0.41104  0.01844  0.00957  1.0000
  I   I312      1.0  0.40706  0.87899  0.30289  1.0000
  I   I313      1.0  0.58491  0.16383  0.35853  1.0000
  I   I314      1.0  0.56674  0.17100  0.65792  1.0000
  I   I315      1.0  0.54440  0.18925  0.01819  1.0000
  I   I316      1.0  0.51521  0.44916  0.91165  1.0000
  I   I317      1.0  0.54357  0.46879  0.29458  1.0000
  I   I318      1.0  0.58100  0.43585  0.62131  1.0000
  I   I319      1.0  0.56892  0.61834  0.09185  1.0000
  I   I320      1.0  0.58478  0.51675  0.38447  1.0000
  I   I321      1.0  0.60892  0.63488  0.88709  1.0000
  I   I322      1.0  0.64983  0.79960  0.07193  1.0000
  I   I323      1.0  0.61897  0.83742  0.37464  1.0000
  I   I324      1.0  0.62493  0.79749  0.73839  1.0000
  I   I325      1.0  0.75071  0.23281  0.96686  1.0000
  I   I326      1.0  0.75685  0.24554  0.27408  1.0000
  I   I327      1.0  0.78836  0.22639  0.64614  1.0000
  I   I328      1.0  0.82455  0.43108  0.93966  1.0000
  I   I329      1.0  0.84186  0.30806  0.40820  1.0000
  I   I330      1.0  0.05515  0.07731  0.39546  1.0000
  I   I331      1.0  0.91390  0.65386  0.95391  1.0000
  I   I332      1.0  0.93391  0.55123  0.47813  1.0000
  I   I333      1.0  0.87186  0.59694  0.77932  1.0000
  I   I334      1.0  0.62904  0.01046  0.15215  1.0000
  I   I335      1.0  0.72461  0.90295  0.44562  1.0000
  I   I336      1.0  0.63711  0.94216  0.73608  1.0000
  I   I337      1.0  0.26389  0.12246  0.47772  1.0000
  I   I338      1.0  0.17407  0.08863  0.86465  1.0000
  I   I339      1.0  0.18065  0.11067  0.17102  1.0000
  I   I340      1.0  0.12522  0.32120  0.06355  1.0000
  I   I341      1.0  0.08976  0.29369  0.42398  1.0000
  I   I342      1.0  0.10734  0.34693  0.78073  1.0000
  I   I343      1.0  0.90635  0.71935  0.44507  1.0000
  I   I344      1.0  0.97300  0.85814  0.74480  1.0000
  I   I345      1.0  0.86988  0.75582  0.08575  1.0000
  I   I346      1.0  0.99966  0.97593  0.02429  1.0000
  I   I347      1.0  0.01095  0.85001  0.44355  1.0000
  I   I348      1.0  0.09904  0.84115  0.60304  1.0000
  I   I349      1.0  0.45058  0.24360  0.96022  1.0000
  I   I350      1.0  0.38857  0.32803  0.35621  1.0000
  I   I351      1.0  0.42877  0.18720  0.66727  1.0000
  I   I352      1.0  0.38237  0.47314  0.70338  1.0000
  I   I353      1.0  0.21147  0.49975  0.87726  1.0000
  I   I354      1.0  0.08597  0.49758  0.22499  1.0000
  I   I355      1.0  0.22105  0.77261  0.16456  1.0000
  I   I356      1.0  0.36560  0.68574  0.07734  1.0000
  I   I357      1.0  0.25701  0.57847  0.40553  1.0000
  I   I358      1.0  0.46265  0.79265  0.55397  1.0000
  I   I359      1.0  0.51532  0.95338  0.97357  1.0000
  I   I360      1.0  0.49701  0.86760  0.29706  1.0000
  I   I361      1.0  0.54631  0.24151  0.26900  1.0000
  I   I362      1.0  0.53490  0.25351  0.57628  1.0000
  I   I363      1.0  0.52967  0.26616  0.94597  1.0000
  I   I364      1.0  0.54453  0.51131  0.85213  1.0000
  I   I365      1.0  0.59837  0.37256  0.35351  1.0000
  I   I366      1.0  0.59644  0.49749  0.54582  1.0000
  I   I367      1.0  0.58953  0.68461  0.04700  1.0000
  I   I368      1.0  0.50390  0.59727  0.37790  1.0000
  I   I369      1.0  0.64111  0.67553  0.77036  1.0000
  I   I370      1.0  0.67859  0.83981  0.94781  1.0000
  I   I371      1.0  0.69600  0.84541  0.30018  1.0000
  I   I372      1.0  0.65932  0.85644  0.63879  1.0000
  I   I373      1.0  0.81782  0.24940  0.90735  1.0000
  I   I374      1.0  0.84012  0.23686  0.23154  1.0000
  I   I375      1.0  0.84855  0.22429  0.55086  1.0000
  I   I376      1.0  0.85236  0.35973  0.83944  1.0000
  I   I377      1.0  0.86970  0.34238  0.56018  1.0000
  I   I378      1.0  0.98957  0.11377  0.51056  1.0000
  I   I379      1.0  0.99485  0.58336  0.96269  1.0000
  I   I380      1.0  0.98714  0.47701  0.38836  1.0000
  I   I381      1.0  0.97246  0.51905  0.71054  1.0000
  I   I382      1.0  0.64797  0.91690  0.08389  1.0000
  I   I383      1.0  0.70962  0.96860  0.32321  1.0000
  I   I384      1.0  0.63245  0.00655  0.63107  1.0000
