data_image0
_chemical_formula_structural       Ti96I384
_chemical_formula_sum              "Ti96 I384"
_cell_length_a       65.9204
_cell_length_b       65.7465
_cell_length_c       32.126
_cell_angle_alpha    88.7757
_cell_angle_beta     88.7757
_cell_angle_gamma    62.1586

_space_group_name_H-M_alt    "P 1"
_space_group_IT_number       1

loop_
  _space_group_symop_operation_xyz
  'x, y, z'

loop_
  _atom_site_type_symbol
  _atom_site_label
  _atom_site_symmetry_multiplicity
  _atom_site_fract_x
  _atom_site_fract_y
  _atom_site_fract_z
  _atom_site_occupancy
  Ti  Ti1       1.0  0.57018  0.83551  0.49277  1.0000
  Ti  Ti2       1.0  0.50814  0.01782  0.27270  1.0000
  Ti  Ti3       1.0  0.77643  0.81120  0.33959  1.0000
  Ti  Ti4       1.0  0.11231  0.99435  0.87531  1.0000
  Ti  Ti5       1.0  0.77136  0.75313  0.68267  1.0000
  Ti  Ti6       1.0  0.42929  0.33120  0.62168  1.0000
  Ti  Ti7       1.0  0.82468  0.15563  0.29835  1.0000
  Ti  Ti8       1.0  0.49604  0.17833  0.02991  1.0000
  Ti  Ti9       1.0  0.29703  0.86745  0.78761  1.0000
  Ti  Ti10      1.0  0.67265  0.95850  0.77277  1.0000
  Ti  Ti11      1.0  0.91866  0.47585  0.64710  1.0000
  Ti  Ti12      1.0  0.09299  0.59718  0.45953  1.0000
  Ti  Ti13      1.0  0.17844  0.11153  0.51069  1.0000
  Ti  Ti14      1.0  0.12539  0.98335  0.43040  1.0000
  Ti  Ti15      1.0  0.59572  0.18521  0.76520  1.0000
  Ti  Ti16      1.0  0.71488  0.91807  0.80611  1.0000
  Ti  Ti17      1.0  0.33320  0.06626  0.56754  1.0000
  Ti  Ti18      1.0  0.10464  0.76776  0.22712  1.0000
  Ti  Ti19      1.0  0.43606  0.76929  0.24842  1.0000
  Ti  Ti20      1.0  0.40278  0.90439  0.52763  1.0000
  Ti  Ti21      1.0  0.24530  0.00212  0.95110  1.0000
  Ti  Ti22      1.0  0.66842  0.46568  0.26331  1.0000
  Ti  Ti23      1.0  0.52510  0.03537  0.59455  1.0000
  Ti  Ti24      1.0  0.05987  0.84571  0.36162  1.0000
  Ti  Ti25      1.0  0.69135  0.70627  0.93807  1.0000
  Ti  Ti26      1.0  0.43006  0.92640  0.15724  1.0000
  Ti  Ti27      1.0  0.92003  0.85563  0.29700  1.0000
  Ti  Ti28      1.0  0.70875  0.36209  0.89310  1.0000
  Ti  Ti29      1.0  0.84030  0.99239  0.58292  1.0000
  Ti  Ti30      1.0  0.90191  0.21626  0.62454  1.0000
  Ti  Ti31      1.0  0.86003  0.21710  0.81518  1.0000
  Ti  Ti32      1.0  0.72127  0.28214  0.25765  1.0000
  Ti  Ti33      1.0  0.31626  0.83775  0.09265  1.0000
  Ti  Ti34      1.0  0.48022  0.53192  0.93920  1.0000
  Ti  Ti35      1.0  0.70043  0.58522  0.49732  1.0000
  Ti  Ti36      1.0  0.77895  0.70895  0.20284  1.0000
  Ti  Ti37      1.0  0.00525  0.45955  0.27230  1.0000
  Ti  Ti38      1.0  0.53847  0.27992  0.00419  1.0000
  Ti  Ti39      1.0  0.97219  0.80307  0.94667  1.0000
  Ti  Ti40      1.0  0.15537  0.18101  0.16005  1.0000
  Ti  Ti41      1.0  0.60832  0.64645  0.87647  1.0000
  Ti  Ti42      1.0  0.84379  0.40649  0.01750  1.0000
  Ti  Ti43      1.0  0.67074  0.19235  0.45854  1.0000
  Ti  Ti44      1.0  0.82231  0.55500  0.79773  1.0000
  Ti  Ti45      1.0  0.32478  0.60929  0.02343  1.0000
  Ti  Ti46      1.0  0.35195  0.52571  0.40512  1.0000
  Ti  Ti47      1.0  0.10334  0.56299  0.09000  1.0000
  Ti  Ti48      1.0  0.55698  0.57304  0.56657  1.0000
  Ti  Ti49      1.0  0.69637  0.67223  0.65311  1.0000
  Ti  Ti50      1.0  0.12743  0.09032  0.97867  1.0000
  Ti  Ti51      1.0  0.51165  0.02684  0.16954  1.0000
  Ti  Ti52      1.0  0.07064  0.98478  0.81484  1.0000
  Ti  Ti53      1.0  0.35064  0.59477  0.77064  1.0000
  Ti  Ti54      1.0  0.42560  0.28321  0.66875  1.0000
  Ti  Ti55      1.0  0.83222  0.12125  0.23050  1.0000
  Ti  Ti56      1.0  0.43523  0.23776  0.98474  1.0000
  Ti  Ti57      1.0  0.24347  0.89152  0.79670  1.0000
  Ti  Ti58      1.0  0.66358  0.17132  0.34268  1.0000
  Ti  Ti59      1.0  0.39502  0.16247  0.84354  1.0000
  Ti  Ti60      1.0  0.14470  0.59261  0.42917  1.0000
  Ti  Ti61      1.0  0.63901  0.20252  0.73872  1.0000
  Ti  Ti62      1.0  0.16366  0.15595  0.62528  1.0000
  Ti  Ti63      1.0  0.09205  0.00586  0.50867  1.0000
  Ti  Ti64      1.0  0.11771  0.69739  0.17642  1.0000
  Ti  Ti65      1.0  0.08616  0.31619  0.69567  1.0000
  Ti  Ti66      1.0  0.46105  0.34177  0.19396  1.0000
  Ti  Ti67      1.0  0.40207  0.79001  0.32634  1.0000
  Ti  Ti68      1.0  0.11612  0.29397  0.12421  1.0000
  Ti  Ti69      1.0  0.28812  0.01930  0.83446  1.0000
  Ti  Ti70      1.0  0.64004  0.52433  0.25481  1.0000
  Ti  Ti71      1.0  0.51824  0.05171  0.50185  1.0000
  Ti  Ti72      1.0  0.26184  0.90895  0.29370  1.0000
  Ti  Ti73      1.0  0.93652  0.90630  0.34134  1.0000
  Ti  Ti74      1.0  0.64517  0.75963  0.93574  1.0000
  Ti  Ti75      1.0  0.43448  0.92262  0.04888  1.0000
  Ti  Ti76      1.0  0.88677  0.22228  0.51184  1.0000
  Ti  Ti77      1.0  0.71936  0.42867  0.84401  1.0000
  Ti  Ti78      1.0  0.85067  0.96744  0.70139  1.0000
  Ti  Ti79      1.0  0.55251  0.41132  0.43131  1.0000
  Ti  Ti80      1.0  0.82213  0.13089  0.59102  1.0000
  Ti  Ti81      1.0  0.68877  0.27973  0.19442  1.0000
  Ti  Ti82      1.0  0.54857  0.46126  0.92939  1.0000
  Ti  Ti83      1.0  0.71623  0.51679  0.57425  1.0000
  Ti  Ti84      1.0  0.81956  0.65442  0.13505  1.0000
  Ti  Ti85      1.0  0.95572  0.48061  0.37695  1.0000
  Ti  Ti86      1.0  0.50177  0.30368  0.10884  1.0000
  Ti  Ti87      1.0  0.02151  0.76185  0.85967  1.0000
  Ti  Ti88      1.0  0.60645  0.87877  0.35276  1.0000
  Ti  Ti89      1.0  0.54554  0.67569  0.84185  1.0000
  Ti  Ti90      1.0  0.83818  0.36225  0.97333  1.0000
  Ti  Ti91      1.0  0.28202  0.65663  0.97701  1.0000
  Ti  Ti92      1.0  0.87130  0.95577  0.98076  1.0000
  Ti  Ti93      1.0  0.78420  0.61243  0.80715  1.0000
  Ti  Ti94      1.0  0.56864  0.51572  0.60773  1.0000
  Ti  Ti95      1.0  0.33788  0.46742  0.36084  1.0000
  Ti  Ti96      1.0  0.16136  0.49144  0.06392  1.0000
  I   I1        1.0  0.17676  0.48711  0.98769  1.0000
  I   I2        1.0  0.52264  0.98295  0.21590  1.0000
  I   I3        1.0  0.71759  0.69355  0.68093  1.0000
  I   I4        1.0  0.35441  0.63080  0.79971  1.0000
  I   I5        1.0  0.38501  0.33045  0.65615  1.0000
  I   I6        1.0  0.43831  0.30579  0.72264  1.0000
  I   I7        1.0  0.51674  0.12959  0.03439  1.0000
  I   I8        1.0  0.41763  0.27804  0.02544  1.0000
  I   I9        1.0  0.33109  0.82814  0.81086  1.0000
  I   I10       1.0  0.69869  0.96248  0.84587  1.0000
  I   I11       1.0  0.90332  0.46325  0.58650  1.0000
  I   I12       1.0  0.74753  0.74020  0.72917  1.0000
  I   I13       1.0  0.12611  0.17327  0.66570  1.0000
  I   I14       1.0  0.11916  0.02586  0.46619  1.0000
  I   I15       1.0  0.55697  0.21194  0.80828  1.0000
  I   I16       1.0  0.74851  0.89093  0.85536  1.0000
  I   I17       1.0  0.44393  0.38620  0.18774  1.0000
  I   I18       1.0  0.08438  0.69093  0.14815  1.0000
  I   I19       1.0  0.36693  0.89802  0.50963  1.0000
  I   I20       1.0  0.90911  0.46287  0.71738  1.0000
  I   I21       1.0  0.20291  0.02087  0.96509  1.0000
  I   I22       1.0  0.52892  0.08020  0.47349  1.0000
  I   I23       1.0  0.49840  0.02382  0.52740  1.0000
  I   I24       1.0  0.65534  0.54326  0.31600  1.0000
  I   I25       1.0  0.62553  0.79794  0.97809  1.0000
  I   I26       1.0  0.40182  0.96045  0.11188  1.0000
  I   I27       1.0  0.89809  0.85640  0.23098  1.0000
  I   I28       1.0  0.69004  0.41243  0.84027  1.0000
  I   I29       1.0  0.84116  0.97504  0.77799  1.0000
  I   I30       1.0  0.93004  0.19246  0.49172  1.0000
  I   I31       1.0  0.80937  0.10750  0.54518  1.0000
  I   I32       1.0  0.64681  0.28516  0.21162  1.0000
  I   I33       1.0  0.54588  0.41821  0.51173  1.0000
  I   I34       1.0  0.74301  0.49288  0.51897  1.0000
  I   I35       1.0  0.75997  0.75123  0.17698  1.0000
  I   I36       1.0  0.45326  0.54520  0.00223  1.0000
  I   I37       1.0  0.94415  0.45097  0.41329  1.0000
  I   I38       1.0  0.01905  0.78079  0.94562  1.0000
  I   I39       1.0  0.00729  0.47386  0.35986  1.0000
  I   I40       1.0  0.51016  0.66766  0.83736  1.0000
  I   I41       1.0  0.82872  0.32783  0.98858  1.0000
  I   I42       1.0  0.16824  0.15201  0.10055  1.0000
  I   I43       1.0  0.65916  0.13279  0.32604  1.0000
  I   I44       1.0  0.79163  0.63474  0.86715  1.0000
  I   I45       1.0  0.28349  0.69671  0.98284  1.0000
  I   I46       1.0  0.31415  0.47496  0.29303  1.0000
  I   I47       1.0  0.07401  0.55002  0.13467  1.0000
  I   I48       1.0  0.53013  0.54842  0.54867  1.0000
  I   I49       1.0  0.72079  0.62785  0.64513  1.0000
  I   I50       1.0  0.53251  0.01669  0.34455  1.0000
  I   I51       1.0  0.51737  0.05496  0.24242  1.0000
  I   I52       1.0  0.09677  0.00227  0.78466  1.0000
  I   I53       1.0  0.38115  0.58706  0.71181  1.0000
  I   I54       1.0  0.45431  0.23928  0.68819  1.0000
  I   I55       1.0  0.79963  0.19863  0.26901  1.0000
  I   I56       1.0  0.53507  0.16796  0.99625  1.0000
  I   I57       1.0  0.26675  0.90570  0.73849  1.0000
  I   I58       1.0  0.66739  0.94369  0.69823  1.0000
  I   I59       1.0  0.36214  0.14948  0.84174  1.0000
  I   I60       1.0  0.09622  0.63551  0.41600  1.0000
  I   I61       1.0  0.14350  0.13830  0.57287  1.0000
  I   I62       1.0  0.20121  0.12585  0.57053  1.0000
  I   I63       1.0  0.07407  0.01868  0.42388  1.0000
  I   I64       1.0  0.72911  0.89709  0.73441  1.0000
  I   I65       1.0  0.08985  0.30995  0.61174  1.0000
  I   I66       1.0  0.47610  0.34358  0.27082  1.0000
  I   I67       1.0  0.47778  0.73736  0.24310  1.0000
  I   I68       1.0  0.39588  0.92903  0.59211  1.0000
  I   I69       1.0  0.27260  0.05867  0.79062  1.0000
  I   I70       1.0  0.68777  0.47255  0.33361  1.0000
  I   I71       1.0  0.51754  0.05070  0.66649  1.0000
  I   I72       1.0  0.28831  0.88111  0.34778  1.0000
  I   I73       1.0  0.96705  0.91747  0.30876  1.0000
  I   I74       1.0  0.42429  0.88995  0.13195  1.0000
  I   I75       1.0  0.44853  0.88272  0.01237  1.0000
  I   I76       1.0  0.72092  0.34044  0.81986  1.0000
  I   I77       1.0  0.75723  0.42650  0.81063  1.0000
  I   I78       1.0  0.82801  0.94356  0.68085  1.0000
  I   I79       1.0  0.31250  0.80325  0.13430  1.0000
  I   I80       1.0  0.82831  0.26045  0.82651  1.0000
  I   I81       1.0  0.69777  0.24683  0.25316  1.0000
  I   I82       1.0  0.57784  0.43153  0.87985  1.0000
  I   I83       1.0  0.65955  0.60980  0.45933  1.0000
  I   I84       1.0  0.75035  0.69948  0.25306  1.0000
  I   I85       1.0  0.97846  0.44261  0.32245  1.0000
  I   I86       1.0  0.51525  0.32635  0.03257  1.0000
  I   I87       1.0  0.97016  0.84146  0.99214  1.0000
  I   I88       1.0  0.17913  0.20467  0.14694  1.0000
  I   I89       1.0  0.59354  0.68871  0.91047  1.0000
  I   I90       1.0  0.84595  0.35403  0.89349  1.0000
  I   I91       1.0  0.28451  0.64557  0.90356  1.0000
  I   I92       1.0  0.83873  0.94746  0.95821  1.0000
  I   I93       1.0  0.86064  0.53911  0.83788  1.0000
  I   I94       1.0  0.56857  0.60410  0.57848  1.0000
  I   I95       1.0  0.32828  0.55465  0.46683  1.0000
  I   I96       1.0  0.19995  0.45876  0.09513  1.0000
  I   I97       1.0  0.81870  0.79440  0.31815  1.0000
  I   I98       1.0  0.56772  0.87393  0.51972  1.0000
  I   I99       1.0  0.48225  0.00347  0.30430  1.0000
  I   I100      1.0  0.11925  0.99865  0.95715  1.0000
  I   I101      1.0  0.09801  0.94815  0.76911  1.0000
  I   I102      1.0  0.77117  0.73151  0.61128  1.0000
  I   I103      1.0  0.82024  0.09781  0.18001  1.0000
  I   I104      1.0  0.78737  0.15592  0.26139  1.0000
  I   I105      1.0  0.25234  0.86122  0.85867  1.0000
  I   I106      1.0  0.11864  0.57579  0.37730  1.0000
  I   I107      1.0  0.62967  0.98834  0.78841  1.0000
  I   I108      1.0  0.10390  0.56783  0.52357  1.0000
  I   I109      1.0  0.67902  0.19984  0.76001  1.0000
  I   I110      1.0  0.18010  0.18564  0.63380  1.0000
  I   I111      1.0  0.12711  0.99322  0.35040  1.0000
  I   I112      1.0  0.08864  0.76924  0.30193  1.0000
  I   I113      1.0  0.10225  0.33826  0.73552  1.0000
  I   I114      1.0  0.36095  0.06478  0.62577  1.0000
  I   I115      1.0  0.45305  0.79587  0.27821  1.0000
  I   I116      1.0  0.39914  0.82201  0.37880  1.0000
  I   I117      1.0  0.11635  0.31960  0.05616  1.0000
  I   I118      1.0  0.61071  0.55405  0.21257  1.0000
  I   I119      1.0  0.62104  0.51585  0.32612  1.0000
  I   I120      1.0  0.27930  0.93437  0.25796  1.0000
  I   I121      1.0  0.90462  0.89102  0.36811  1.0000
  I   I122      1.0  0.69053  0.67163  0.97874  1.0000
  I   I123      1.0  0.47098  0.89489  0.10790  1.0000
  I   I124      1.0  0.87034  0.20305  0.45899  1.0000
  I   I125      1.0  0.73905  0.32849  0.93757  1.0000
  I   I126      1.0  0.87270  0.00899  0.59693  1.0000
  I   I127      1.0  0.31577  0.86428  0.15561  1.0000
  I   I128      1.0  0.82679  0.16491  0.55839  1.0000
  I   I129      1.0  0.68829  0.27060  0.11652  1.0000
  I   I130      1.0  0.82319  0.61374  0.11026  1.0000
  I   I131      1.0  0.51683  0.49317  0.98990  1.0000
  I   I132      1.0  0.72881  0.50859  0.64879  1.0000
  I   I133      1.0  0.92906  0.82866  0.92367  1.0000
  I   I134      1.0  0.55406  0.23502  0.98794  1.0000
  I   I135      1.0  0.47478  0.28507  0.08541  1.0000
  I   I136      1.0  0.85892  0.41514  0.08548  1.0000
  I   I137      1.0  0.56272  0.90544  0.35593  1.0000
  I   I138      1.0  0.58138  0.63491  0.82769  1.0000
  I   I139      1.0  0.35395  0.57084  0.98565  1.0000
  I   I140      1.0  0.90732  0.92062  0.01370  1.0000
  I   I141      1.0  0.76983  0.58313  0.79426  1.0000
  I   I142      1.0  0.54057  0.59501  0.48989  1.0000
  I   I143      1.0  0.32513  0.51895  0.35086  1.0000
  I   I144      1.0  0.14891  0.52935  0.11979  1.0000
  I   I145      1.0  0.55823  0.81624  0.43758  1.0000
  I   I146      1.0  0.46920  0.04996  0.21004  1.0000
  I   I147      1.0  0.76999  0.81495  0.41700  1.0000
  I   I148      1.0  0.03734  0.01545  0.77596  1.0000
  I   I149      1.0  0.80668  0.75039  0.71853  1.0000
  I   I150      1.0  0.42259  0.29154  0.58497  1.0000
  I   I151      1.0  0.87757  0.10743  0.23061  1.0000
  I   I152      1.0  0.45495  0.18703  0.01501  1.0000
  I   I153      1.0  0.20683  0.90026  0.74594  1.0000
  I   I154      1.0  0.64026  0.20376  0.29311  1.0000
  I   I155      1.0  0.95357  0.48595  0.64605  1.0000
  I   I156      1.0  0.15626  0.61467  0.37517  1.0000
  I   I157      1.0  0.57523  0.18127  0.69331  1.0000
  I   I158      1.0  0.07402  0.97999  0.51829  1.0000
  I   I159      1.0  0.63109  0.24620  0.73265  1.0000
  I   I160      1.0  0.08651  0.80564  0.18674  1.0000
  I   I161      1.0  0.31660  0.03892  0.58994  1.0000
  I   I162      1.0  0.14810  0.68554  0.11710  1.0000
  I   I163      1.0  0.38316  0.81707  0.26139  1.0000
  I   I164      1.0  0.11812  0.25750  0.09441  1.0000
  I   I165      1.0  0.29217  0.99676  0.91988  1.0000
  I   I166      1.0  0.63235  0.48973  0.21558  1.0000
  I   I167      1.0  0.55427  0.05071  0.57292  1.0000
  I   I168      1.0  0.04823  0.88928  0.35043  1.0000
  I   I169      1.0  0.64310  0.72165  0.91912  1.0000
  I   I170      1.0  0.73311  0.69895  0.97709  1.0000
  I   I171      1.0  0.93171  0.89008  0.26676  1.0000
  I   I172      1.0  0.89062  0.18860  0.57427  1.0000
  I   I173      1.0  0.82054  0.01353  0.66503  1.0000
  I   I174      1.0  0.94327  0.20732  0.60939  1.0000
  I   I175      1.0  0.90561  0.19902  0.81193  1.0000
  I   I176      1.0  0.69602  0.30194  0.31975  1.0000
  I   I177      1.0  0.59413  0.40825  0.42429  1.0000
  I   I178      1.0  0.54128  0.43257  0.97865  1.0000
  I   I179      1.0  0.68609  0.54914  0.52509  1.0000
  I   I180      1.0  0.85551  0.64716  0.07857  1.0000
  I   I181      1.0  0.95635  0.50191  0.44635  1.0000
  I   I182      1.0  0.45523  0.34305  0.10622  1.0000
  I   I183      1.0  0.03702  0.78709  0.82710  1.0000
  I   I184      1.0  0.62283  0.88793  0.28489  1.0000
  I   I185      1.0  0.56439  0.65553  0.91891  1.0000
  I   I186      1.0  0.87623  0.37243  0.96148  1.0000
  I   I187      1.0  0.87416  0.98042  0.91990  1.0000
  I   I188      1.0  0.81872  0.56434  0.71864  1.0000
  I   I189      1.0  0.33736  0.63501  0.98724  1.0000
  I   I190      1.0  0.31073  0.46168  0.40928  1.0000
  I   I191      1.0  0.13348  0.12294  0.01803  1.0000
  I   I192      1.0  0.60148  0.51312  0.65806  1.0000
  I   I193      1.0  0.54470  0.83722  0.55665  1.0000
  I   I194      1.0  0.12618  0.05855  0.03116  1.0000
  I   I195      1.0  0.76023  0.78185  0.32017  1.0000
  I   I196      1.0  0.11801  0.02780  0.86111  1.0000
  I   I197      1.0  0.68702  0.14598  0.44008  1.0000
  I   I198      1.0  0.42759  0.37101  0.63530  1.0000
  I   I199      1.0  0.81981  0.15631  0.16748  1.0000
  I   I200      1.0  0.45509  0.24212  0.91865  1.0000
  I   I201      1.0  0.32619  0.87750  0.74319  1.0000
  I   I202      1.0  0.42624  0.13048  0.80079  1.0000
  I   I203      1.0  0.30604  0.98942  0.77422  1.0000
  I   I204      1.0  0.06454  0.63093  0.51196  1.0000
  I   I205      1.0  0.18713  0.12607  0.68399  1.0000
  I   I206      1.0  0.06609  0.04113  0.54953  1.0000
  I   I207      1.0  0.59393  0.21890  0.70351  1.0000
  I   I208      1.0  0.68726  0.89871  0.79410  1.0000
  I   I209      1.0  0.35505  0.05421  0.49380  1.0000
  I   I210      1.0  0.13877  0.71864  0.22477  1.0000
  I   I211      1.0  0.44053  0.75827  0.35105  1.0000
  I   I212      1.0  0.40214  0.92431  0.45854  1.0000
  I   I213      1.0  0.32497  0.02277  0.85222  1.0000
  I   I214      1.0  0.68316  0.49933  0.21883  1.0000
  I   I215      1.0  0.55816  0.99585  0.62005  1.0000
  I   I216      1.0  0.06467  0.82902  0.43831  1.0000
  I   I217      1.0  0.69666  0.69245  0.85729  1.0000
  I   I218      1.0  0.44939  0.94777  0.01643  1.0000
  I   I219      1.0  0.91066  0.95078  0.35595  1.0000
  I   I220      1.0  0.67561  0.35665  0.92343  1.0000
  I   I221      1.0  0.80604  0.00008  0.53620  1.0000
  I   I222      1.0  0.88235  0.25591  0.56935  1.0000
  I   I223      1.0  0.84548  0.19416  0.85920  1.0000
  I   I224      1.0  0.75612  0.25036  0.29910  1.0000
  I   I225      1.0  0.35801  0.81924  0.06388  1.0000
  I   I226      1.0  0.50328  0.49189  0.88542  1.0000
  I   I227      1.0  0.74163  0.54135  0.55055  1.0000
  I   I228      1.0  0.81372  0.65174  0.21532  1.0000
  I   I229      1.0  0.03199  0.47519  0.24199  1.0000
  I   I230      1.0  0.54133  0.28756  0.92565  1.0000
  I   I231      1.0  0.02504  0.74601  0.77797  1.0000
  I   I232      1.0  0.13629  0.94189  0.45223  1.0000
  I   I233      1.0  0.63434  0.64460  0.80985  1.0000
  I   I234      1.0  0.80674  0.40492  0.96611  1.0000
  I   I235      1.0  0.70768  0.19368  0.50554  1.0000
  I   I236      1.0  0.74171  0.62937  0.85016  1.0000
  I   I237      1.0  0.28907  0.60916  0.98112  1.0000
  I   I238      1.0  0.35548  0.55566  0.35175  1.0000
  I   I239      1.0  0.13546  0.47343  0.07316  1.0000
  I   I240      1.0  0.59198  0.53845  0.53538  1.0000
  I   I241      1.0  0.67015  0.66429  0.70966  1.0000
  I   I242      1.0  0.50641  0.01635  0.09650  1.0000
  I   I243      1.0  0.75441  0.84752  0.29682  1.0000
  I   I244      1.0  0.07274  0.99129  0.90622  1.0000
  I   I245      1.0  0.37393  0.55615  0.81503  1.0000
  I   I246      1.0  0.39344  0.26778  0.68582  1.0000
  I   I247      1.0  0.83362  0.10958  0.31278  1.0000
  I   I248      1.0  0.48572  0.17249  0.11391  1.0000
  I   I249      1.0  0.21747  0.92290  0.84994  1.0000
  I   I250      1.0  0.38980  0.19182  0.78371  1.0000
  I   I251      1.0  0.88645  0.51713  0.65816  1.0000
  I   I252      1.0  0.18203  0.55345  0.42214  1.0000
  I   I253      1.0  0.20305  0.10010  0.44277  1.0000
  I   I254      1.0  0.12832  0.98496  0.55784  1.0000
  I   I255      1.0  0.62918  0.18971  0.80734  1.0000
  I   I256      1.0  0.11705  0.27179  0.70573  1.0000
  I   I257      1.0  0.29410  0.10361  0.58045  1.0000
  I   I258      1.0  0.08824  0.74980  0.16544  1.0000
  I   I259      1.0  0.37558  0.78200  0.38540  1.0000
  I   I260      1.0  0.07682  0.31172  0.16412  1.0000
  I   I261      1.0  0.24716  0.03437  0.88162  1.0000
  I   I262      1.0  0.69857  0.43409  0.22483  1.0000
  I   I263      1.0  0.48752  0.06239  0.43987  1.0000
  I   I264      1.0  0.09356  0.83056  0.31188  1.0000
  I   I265      1.0  0.67561  0.73411  0.01037  1.0000
  I   I266      1.0  0.41089  0.93501  0.22948  1.0000
  I   I267      1.0  0.96100  0.87226  0.39049  1.0000
  I   I268      1.0  0.69359  0.47053  0.81043  1.0000
  I   I269      1.0  0.89443  0.94099  0.70075  1.0000
  I   I270      1.0  0.87926  0.25458  0.45722  1.0000
  I   I271      1.0  0.84250  0.21551  0.74500  1.0000
  I   I272      1.0  0.67720  0.32493  0.20641  1.0000
  I   I273      1.0  0.28348  0.85682  0.04516  1.0000
  I   I274      1.0  0.57986  0.46713  0.97747  1.0000
  I   I275      1.0  0.69009  0.61900  0.54755  1.0000
  I   I276      1.0  0.77276  0.68342  0.13655  1.0000
  I   I277      1.0  0.02235  0.42580  0.22310  1.0000
  I   I278      1.0  0.53981  0.26291  0.08663  1.0000
  I   I279      1.0  0.95688  0.78959  0.01490  1.0000
  I   I280      1.0  0.61224  0.88730  0.43390  1.0000
  I   I281      1.0  0.52851  0.71299  0.89231  1.0000
  I   I282      1.0  0.80844  0.42163  0.07618  1.0000
  I   I283      1.0  0.64046  0.20172  0.39932  1.0000
  I   I284      1.0  0.77752  0.63250  0.72834  1.0000
  I   I285      1.0  0.34567  0.58864  0.10028  1.0000
  I   I286      1.0  0.37189  0.42652  0.33090  1.0000
  I   I287      1.0  0.08114  0.59044  0.03300  1.0000
  I   I288      1.0  0.55160  0.50627  0.67866  1.0000
  I   I289      1.0  0.68723  0.68282  0.57587  1.0000
  I   I290      1.0  0.08353  0.10578  0.95242  1.0000
  I   I291      1.0  0.55490  0.01918  0.16045  1.0000
  I   I292      1.0  0.03386  0.97628  0.83499  1.0000
  I   I293      1.0  0.31521  0.59545  0.73458  1.0000
  I   I294      1.0  0.47167  0.30572  0.59994  1.0000
  I   I295      1.0  0.80569  0.17063  0.37225  1.0000
  I   I296      1.0  0.47925  0.22548  0.01379  1.0000
  I   I297      1.0  0.28677  0.89556  0.85456  1.0000
  I   I298      1.0  0.70717  0.16457  0.33879  1.0000
  I   I299      1.0  0.68003  0.99263  0.74784  1.0000
  I   I300      1.0  0.13755  0.61882  0.49514  1.0000
  I   I301      1.0  0.65415  0.17022  0.67954  1.0000
  I   I302      1.0  0.14483  0.10914  0.47152  1.0000
  I   I303      1.0  0.11432  0.19230  0.18368  1.0000
  I   I304      1.0  0.14388  0.76696  0.23990  1.0000
  I   I305      1.0  0.73857  0.94117  0.76769  1.0000
  I   I306      1.0  0.51814  0.32108  0.15900  1.0000
  I   I307      1.0  0.41936  0.77216  0.16817  1.0000
  I   I308      1.0  0.44692  0.87391  0.52795  1.0000
  I   I309      1.0  0.26406  0.95926  0.97658  1.0000
  I   I310      1.0  0.64866  0.44874  0.30889  1.0000
  I   I311      1.0  0.48232  0.07639  0.56475  1.0000
  I   I312      1.0  0.24789  0.89563  0.22916  1.0000
  I   I313      1.0  0.93188  0.81402  0.33450  1.0000
  I   I314      1.0  0.68777  0.75034  0.90268  1.0000
  I   I315      1.0  0.39914  0.94193  0.00024  1.0000
  I   I316      1.0  0.90158  0.18926  0.68860  1.0000
  I   I317      1.0  0.73928  0.37891  0.89356  1.0000
  I   I318      1.0  0.86288  0.94999  0.60529  1.0000
  I   I319      1.0  0.54436  0.37427  0.42346  1.0000
  I   I320      1.0  0.86602  0.10724  0.61304  1.0000
  I   I321      1.0  0.74127  0.30568  0.23030  1.0000
  I   I322      1.0  0.44569  0.56229  0.88977  1.0000
  I   I323      1.0  0.69528  0.49050  0.57867  1.0000
  I   I324      1.0  0.79638  0.71372  0.26993  1.0000
  I   I325      1.0  0.92771  0.50621  0.31694  1.0000
  I   I326      1.0  0.48986  0.29118  0.19250  1.0000
  I   I327      1.0  0.97280  0.77891  0.87413  1.0000
  I   I328      1.0  0.17844  0.15999  0.23154  1.0000
  I   I329      1.0  0.55903  0.69416  0.77825  1.0000
  I   I330      1.0  0.84802  0.35515  0.06341  1.0000
  I   I331      1.0  0.28785  0.65144  0.06523  1.0000
  I   I332      1.0  0.65135  0.19418  0.53133  1.0000
  I   I333      1.0  0.82319  0.51623  0.81930  1.0000
  I   I334      1.0  0.58485  0.47375  0.57846  1.0000
  I   I335      1.0  0.39160  0.50879  0.44364  1.0000
  I   I336      1.0  0.09436  0.59477  0.13983  1.0000
  I   I337      1.0  0.60806  0.80129  0.51273  1.0000
  I   I338      1.0  0.16430  0.07002  0.92821  1.0000
  I   I339      1.0  0.50366  0.07030  0.12962  1.0000
  I   I340      1.0  0.14394  0.95326  0.85335  1.0000
  I   I341      1.0  0.74852  0.79387  0.65069  1.0000
  I   I342      1.0  0.41934  0.35087  0.54248  1.0000
  I   I343      1.0  0.86641  0.14284  0.33254  1.0000
  I   I344      1.0  0.39587  0.24120  0.96162  1.0000
  I   I345      1.0  0.26775  0.85130  0.75815  1.0000
  I   I346      1.0  0.67688  0.22610  0.42374  1.0000
  I   I347      1.0  0.42102  0.16820  0.90036  1.0000
  I   I348      1.0  0.07406  0.57271  0.43330  1.0000
  I   I349      1.0  0.60636  0.14230  0.77378  1.0000
  I   I350      1.0  0.19990  0.07356  0.55366  1.0000
  I   I351      1.0  0.16882  0.97538  0.43698  1.0000
  I   I352      1.0  0.14079  0.66531  0.22994  1.0000
  I   I353      1.0  0.04477  0.33042  0.72326  1.0000
  I   I354      1.0  0.42594  0.33888  0.22615  1.0000
  I   I355      1.0  0.40322  0.75504  0.26973  1.0000
  I   I356      1.0  0.14629  0.28690  0.17772  1.0000
  I   I357      1.0  0.24627  0.01166  0.03230  1.0000
  I   I358      1.0  0.02992  0.83863  0.32113  1.0000
  I   I359      1.0  0.55330  0.01278  0.48226  1.0000
  I   I360      1.0  0.22940  0.93715  0.33977  1.0000
  I   I361      1.0  0.96319  0.82734  0.27426  1.0000
  I   I362      1.0  0.63100  0.77725  0.86114  1.0000
  I   I363      1.0  0.46119  0.94153  0.18233  1.0000
  I   I364      1.0  0.88119  0.24601  0.68854  1.0000
  I   I365      1.0  0.72576  0.44081  0.91693  1.0000
  I   I366      1.0  0.86259  0.98705  0.51145  1.0000
  I   I367      1.0  0.51394  0.44820  0.40153  1.0000
  I   I368      1.0  0.79920  0.12541  0.65783  1.0000
  I   I369      1.0  0.73625  0.25268  0.18578  1.0000
  I   I370      1.0  0.49319  0.56480  0.95795  1.0000
  I   I371      1.0  0.72757  0.58888  0.43996  1.0000
  I   I372      1.0  0.83090  0.68586  0.17981  1.0000
  I   I373      1.0  0.97384  0.48468  0.22137  1.0000
  I   I374      1.0  0.57914  0.27236  0.02284  1.0000
  I   I375      1.0  0.05529  0.72532  0.88817  1.0000
  I   I376      1.0  0.61742  0.83581  0.37099  1.0000
  I   I377      1.0  0.63214  0.60987  0.92337  1.0000
  I   I378      1.0  0.85567  0.43367  0.97151  1.0000
  I   I379      1.0  0.23932  0.66943  0.99119  1.0000
  I   I380      1.0  0.84931  0.98253  0.04625  1.0000
  I   I381      1.0  0.83670  0.59401  0.80645  1.0000
  I   I382      1.0  0.55052  0.56249  0.64123  1.0000
  I   I383      1.0  0.37596  0.47593  0.40124  1.0000
  I   I384      1.0  0.12905  0.53421  0.01685  1.0000
