data_image0
_chemical_formula_structural       Ti96I384
_chemical_formula_sum              "Ti96 I384"
_cell_length_a       80.0869
_cell_length_b       79.5801
_cell_length_c       39.0184
_cell_angle_alpha    88.7757
_cell_angle_beta     88.7757
_cell_angle_gamma    62.1586

_space_group_name_H-M_alt    "P 1"
_space_group_IT_number       1

loop_
  _space_group_symop_operation_xyz
  'x, y, z'

loop_
  _atom_site_type_symbol
  _atom_site_label
  _atom_site_symmetry_multiplicity
  _atom_site_fract_x
  _atom_site_fract_y
  _atom_site_fract_z
  _atom_site_occupancy
  Ti  Ti1       1.0  0.63436  0.61382  0.27462  1.0000
  Ti  Ti2       1.0  0.63056  0.97814  0.60696  1.0000
  Ti  Ti3       1.0  0.95043  0.00766  0.17490  1.0000
  Ti  Ti4       1.0  0.48613  0.75508  0.96606  1.0000
  Ti  Ti5       1.0  0.95436  0.65234  0.66878  1.0000
  Ti  Ti6       1.0  0.09654  0.89813  0.46109  1.0000
  Ti  Ti7       1.0  0.28530  0.28179  0.85215  1.0000
  Ti  Ti8       1.0  0.56591  0.38929  0.90392  1.0000
  Ti  Ti9       1.0  0.06906  0.16195  0.64049  1.0000
  Ti  Ti10      1.0  0.89911  0.36193  0.15817  1.0000
  Ti  Ti11      1.0  0.22464  0.82655  0.68802  1.0000
  Ti  Ti12      1.0  0.31908  0.97763  0.28122  1.0000
  Ti  Ti13      1.0  0.53625  0.58494  0.28421  1.0000
  Ti  Ti14      1.0  0.45067  0.79947  0.95957  1.0000
  Ti  Ti15      1.0  0.72572  0.21525  0.48974  1.0000
  Ti  Ti16      1.0  0.86639  0.49826  0.81318  1.0000
  Ti  Ti17      1.0  0.42977  0.08547  0.45566  1.0000
  Ti  Ti18      1.0  0.60761  0.29112  0.52841  1.0000
  Ti  Ti19      1.0  0.93467  0.18086  0.05393  1.0000
  Ti  Ti20      1.0  0.74913  0.67543  0.58958  1.0000
  Ti  Ti21      1.0  0.56693  0.42448  0.72636  1.0000
  Ti  Ti22      1.0  0.49811  0.18929  0.04320  1.0000
  Ti  Ti23      1.0  0.38470  0.26190  0.67591  1.0000
  Ti  Ti24      1.0  0.77932  0.50488  0.35133  1.0000
  Ti  Ti25      1.0  0.88276  0.06229  0.99723  1.0000
  Ti  Ti26      1.0  0.21635  0.76155  0.46485  1.0000
  Ti  Ti27      1.0  0.86015  0.82816  0.58441  1.0000
  Ti  Ti28      1.0  0.33636  0.14869  0.04459  1.0000
  Ti  Ti29      1.0  0.11571  0.54302  0.53565  1.0000
  Ti  Ti30      1.0  0.34454  0.62536  0.76294  1.0000
  Ti  Ti31      1.0  0.89554  0.86563  0.35845  1.0000
  Ti  Ti32      1.0  0.19974  0.19362  0.80704  1.0000
  Ti  Ti33      1.0  0.76138  0.33236  0.22386  1.0000
  Ti  Ti34      1.0  0.69462  0.63288  0.78942  1.0000
  Ti  Ti35      1.0  0.49430  0.11178  0.85522  1.0000
  Ti  Ti36      1.0  0.05720  0.91127  0.93675  1.0000
  Ti  Ti37      1.0  0.38363  0.92527  0.18142  1.0000
  Ti  Ti38      1.0  0.52286  0.59696  0.65121  1.0000
  Ti  Ti39      1.0  0.91357  0.32827  0.09313  1.0000
  Ti  Ti40      1.0  0.52348  0.11816  0.09003  1.0000
  Ti  Ti41      1.0  0.09618  0.09376  0.49661  1.0000
  Ti  Ti42      1.0  0.41228  0.32167  0.98091  1.0000
  Ti  Ti43      1.0  0.38509  0.61331  0.95834  1.0000
  Ti  Ti44      1.0  0.35344  0.44491  0.27792  1.0000
  Ti  Ti45      1.0  0.86449  0.08416  0.38031  1.0000
  Ti  Ti46      1.0  0.66638  0.84990  0.27298  1.0000
  Ti  Ti47      1.0  0.27373  0.49635  0.58085  1.0000
  Ti  Ti48      1.0  0.55359  0.87157  0.15161  1.0000
  Ti  Ti49      1.0  0.59258  0.02187  0.18707  1.0000
  Ti  Ti50      1.0  0.10042  0.23660  0.32382  1.0000
  Ti  Ti51      1.0  0.60170  0.00591  0.68360  1.0000
  Ti  Ti52      1.0  0.08788  0.54186  0.31440  1.0000
  Ti  Ti53      1.0  0.64867  0.26581  0.03159  1.0000
  Ti  Ti54      1.0  0.77132  0.99044  0.74808  1.0000
  Ti  Ti55      1.0  0.92465  0.70816  0.21607  1.0000
  Ti  Ti56      1.0  0.76153  0.97769  0.10075  1.0000
  Ti  Ti57      1.0  0.08505  0.11912  0.61439  1.0000
  Ti  Ti58      1.0  0.00892  0.88136  0.31573  1.0000
  Ti  Ti59      1.0  0.83327  0.47937  0.88243  1.0000
  Ti  Ti60      1.0  0.89471  0.17124  0.06747  1.0000
  Ti  Ti61      1.0  0.58859  0.08145  0.32133  1.0000
  Ti  Ti62      1.0  0.56017  0.55592  0.36335  1.0000
  Ti  Ti63      1.0  0.11095  0.78449  0.74910  1.0000
  Ti  Ti64      1.0  0.58112  0.27938  0.45917  1.0000
  Ti  Ti65      1.0  0.11013  0.19402  0.69147  1.0000
  Ti  Ti66      1.0  0.21147  0.96774  0.61100  1.0000
  Ti  Ti67      1.0  0.56548  0.77212  0.74476  1.0000
  Ti  Ti68      1.0  0.98169  0.76716  0.32045  1.0000
  Ti  Ti69      1.0  0.22347  0.79098  0.36869  1.0000
  Ti  Ti70      1.0  0.15974  0.80336  0.17469  1.0000
  Ti  Ti71      1.0  0.78227  0.46554  0.13508  1.0000
  Ti  Ti72      1.0  0.19816  0.49137  0.65288  1.0000
  Ti  Ti73      1.0  0.40363  0.62440  0.51364  1.0000
  Ti  Ti74      1.0  0.93997  0.03187  0.97241  1.0000
  Ti  Ti75      1.0  0.59051  0.99485  0.25816  1.0000
  Ti  Ti76      1.0  0.49368  0.77069  0.55317  1.0000
  Ti  Ti77      1.0  0.73686  0.21603  0.41243  1.0000
  Ti  Ti78      1.0  0.11014  0.55783  0.61278  1.0000
  Ti  Ti79      1.0  0.80328  0.07577  0.55706  1.0000
  Ti  Ti80      1.0  0.16120  0.44174  0.08234  1.0000
  Ti  Ti81      1.0  0.48063  0.26714  0.66037  1.0000
  Ti  Ti82      1.0  0.54158  0.64048  0.03790  1.0000
  Ti  Ti83      1.0  0.85201  0.12193  0.44152  1.0000
  Ti  Ti84      1.0  0.09623  0.86008  0.89700  1.0000
  Ti  Ti85      1.0  0.35856  0.93965  0.23057  1.0000
  Ti  Ti86      1.0  0.31190  0.25198  0.93021  1.0000
  Ti  Ti87      1.0  0.67219  0.76580  0.71286  1.0000
  Ti  Ti88      1.0  0.75567  0.22828  0.90995  1.0000
  Ti  Ti89      1.0  0.87236  0.17939  0.85833  1.0000
  Ti  Ti90      1.0  0.45021  0.02950  0.50148  1.0000
  Ti  Ti91      1.0  0.47579  0.39535  0.24511  1.0000
  Ti  Ti92      1.0  0.61719  0.53558  0.08374  1.0000
  Ti  Ti93      1.0  0.38119  0.88989  0.78131  1.0000
  Ti  Ti94      1.0  0.54115  0.84803  0.18673  1.0000
  Ti  Ti95      1.0  0.24768  0.82970  0.04148  1.0000
  Ti  Ti96      1.0  0.10557  0.16004  0.98356  1.0000
  I   I1        1.0  0.27023  0.50635  0.64525  1.0000
  I   I2        1.0  0.61686  0.02906  0.66931  1.0000
  I   I3        1.0  0.57408  0.03782  0.25195  1.0000
  I   I4        1.0  0.64968  0.26206  0.10009  1.0000
  I   I5        1.0  0.07974  0.92888  0.42326  1.0000
  I   I6        1.0  0.80384  0.97428  0.78610  1.0000
  I   I7        1.0  0.59078  0.36745  0.85668  1.0000
  I   I8        1.0  0.72575  0.00242  0.11633  1.0000
  I   I9        1.0  0.05303  0.14160  0.66660  1.0000
  I   I10       1.0  0.51066  0.11311  0.14730  1.0000
  I   I11       1.0  0.24972  0.81303  0.63294  1.0000
  I   I12       1.0  0.92022  0.66219  0.69821  1.0000
  I   I13       1.0  0.57289  0.55130  0.28983  1.0000
  I   I14       1.0  0.07945  0.81213  0.70970  1.0000
  I   I15       1.0  0.69025  0.23096  0.50603  1.0000
  I   I16       1.0  0.56113  0.09813  0.08695  1.0000
  I   I17       1.0  0.19110  0.96808  0.66850  1.0000
  I   I18       1.0  0.54741  0.29641  0.44154  1.0000
  I   I19       1.0  0.13054  0.79090  0.70449  1.0000
  I   I20       1.0  0.20258  0.86121  0.72358  1.0000
  I   I21       1.0  0.55886  0.41948  0.93791  1.0000
  I   I22       1.0  0.51403  0.26692  0.65756  1.0000
  I   I23       1.0  0.75283  0.25812  0.88289  1.0000
  I   I24       1.0  0.13345  0.79897  0.20751  1.0000
  I   I25       1.0  0.86666  0.08567  0.05264  1.0000
  I   I26       1.0  0.56877  0.00528  0.19190  1.0000
  I   I27       1.0  0.47093  0.13970  0.81826  1.0000
  I   I28       1.0  0.32223  0.16630  0.98569  1.0000
  I   I29       1.0  0.09710  0.57608  0.66721  1.0000
  I   I30       1.0  0.31023  0.65145  0.75729  1.0000
  I   I31       1.0  0.17695  0.41955  0.03188  1.0000
  I   I32       1.0  0.48430  0.23191  0.67026  1.0000
  I   I33       1.0  0.77115  0.08789  0.52940  1.0000
  I   I34       1.0  0.48599  0.08675  0.83215  1.0000
  I   I35       1.0  0.09759  0.82844  0.92519  1.0000
  I   I36       1.0  0.71928  0.64619  0.78584  1.0000
  I   I37       1.0  0.41814  0.89514  0.15733  1.0000
  I   I38       1.0  0.86508  0.37339  0.18432  1.0000
  I   I39       1.0  0.32276  0.96728  0.21229  1.0000
  I   I40       1.0  0.34529  0.48029  0.25752  1.0000
  I   I41       1.0  0.07363  0.22894  0.34828  1.0000
  I   I42       1.0  0.51854  0.15283  0.09917  1.0000
  I   I43       1.0  0.97952  0.87657  0.33963  1.0000
  I   I44       1.0  0.83366  0.09152  0.35365  1.0000
  I   I45       1.0  0.84992  0.15353  0.46279  1.0000
  I   I46       1.0  0.27124  0.84255  0.06481  1.0000
  I   I47       1.0  0.28176  0.46092  0.57752  1.0000
  I   I48       1.0  0.57726  0.85387  0.21201  1.0000
  I   I49       1.0  0.62123  0.99749  0.22267  1.0000
  I   I50       1.0  0.62571  0.99570  0.54867  1.0000
  I   I51       1.0  0.58585  0.99719  0.61544  1.0000
  I   I52       1.0  0.17386  0.46595  0.07804  1.0000
  I   I53       1.0  0.65973  0.28832  0.00295  1.0000
  I   I54       1.0  0.76072  0.02529  0.77023  1.0000
  I   I55       1.0  0.29740  0.24332  0.86593  1.0000
  I   I56       1.0  0.57706  0.44922  0.71084  1.0000
  I   I57       1.0  0.26068  0.80474  0.09457  1.0000
  I   I58       1.0  0.88872  0.32786  0.14147  1.0000
  I   I59       1.0  0.85301  0.46998  0.80994  1.0000
  I   I60       1.0  0.87391  0.15878  0.03862  1.0000
  I   I61       1.0  0.56874  0.51887  0.36621  1.0000
  I   I62       1.0  0.50528  0.61756  0.29273  1.0000
  I   I63       1.0  0.73815  0.70760  0.56144  1.0000
  I   I64       1.0  0.84744  0.45835  0.93507  1.0000
  I   I65       1.0  0.51074  0.10875  0.03845  1.0000
  I   I66       1.0  0.36526  0.11677  0.02224  1.0000
  I   I67       1.0  0.95668  0.19707  0.02868  1.0000
  I   I68       1.0  0.72676  0.68587  0.64533  1.0000
  I   I69       1.0  0.22094  0.72448  0.46124  1.0000
  I   I70       1.0  0.15513  0.83483  0.21260  1.0000
  I   I71       1.0  0.41186  0.25834  0.71587  1.0000
  I   I72       1.0  0.19696  0.52420  0.66087  1.0000
  I   I73       1.0  0.85607  0.85171  0.53624  1.0000
  I   I74       1.0  0.24195  0.77069  0.43229  1.0000
  I   I75       1.0  0.20507  0.81368  0.31047  1.0000
  I   I76       1.0  0.76295  0.19835  0.45923  1.0000
  I   I77       1.0  0.70508  0.21444  0.39914  1.0000
  I   I78       1.0  0.91398  0.86066  0.41427  1.0000
  I   I79       1.0  0.73052  0.33421  0.19314  1.0000
  I   I80       1.0  0.63461  0.63485  0.22561  1.0000
  I   I81       1.0  0.20656  0.19257  0.73997  1.0000
  I   I82       1.0  0.52822  0.67323  0.07260  1.0000
  I   I83       1.0  0.88809  0.08716  0.43146  1.0000
  I   I84       1.0  0.11882  0.87451  0.90505  1.0000
  I   I85       1.0  0.38213  0.89781  0.22602  1.0000
  I   I86       1.0  0.31541  0.13084  0.05412  1.0000
  I   I87       1.0  0.93584  0.34416  0.13133  1.0000
  I   I88       1.0  0.88109  0.36447  0.08211  1.0000
  I   I89       1.0  0.69718  0.60067  0.76645  1.0000
  I   I90       1.0  0.13345  0.20493  0.31886  1.0000
  I   I91       1.0  0.45063  0.42990  0.24096  1.0000
  I   I92       1.0  0.65162  0.52226  0.06106  1.0000
  I   I93       1.0  0.31914  0.46076  0.29892  1.0000
  I   I94       1.0  0.57088  0.82705  0.14756  1.0000
  I   I95       1.0  0.67826  0.86942  0.30963  1.0000
  I   I96       1.0  0.52542  0.18007  0.00211  1.0000
  I   I97       1.0  0.92321  0.04182  0.20557  1.0000
  I   I98       1.0  0.60015  0.63343  0.29731  1.0000
  I   I99       1.0  0.66889  0.96164  0.60000  1.0000
  I   I100      1.0  0.42151  0.80367  0.92583  1.0000
  I   I101      1.0  0.76114  0.20610  0.85737  1.0000
  I   I102      1.0  0.96919  0.67067  0.69775  1.0000
  I   I103      1.0  0.33116  0.21342  0.93543  1.0000
  I   I104      1.0  0.89413  0.74354  0.21690  1.0000
  I   I105      1.0  0.11127  0.11856  0.55797  1.0000
  I   I106      1.0  0.30552  0.99149  0.33982  1.0000
  I   I107      1.0  0.90974  0.37236  0.21253  1.0000
  I   I108      1.0  0.31577  0.01322  0.27045  1.0000
  I   I109      1.0  0.71881  0.24991  0.46623  1.0000
  I   I110      1.0  0.55590  0.56488  0.42546  1.0000
  I   I111      1.0  0.72908  0.66286  0.55203  1.0000
  I   I112      1.0  0.57174  0.30966  0.50783  1.0000
  I   I113      1.0  0.08985  0.22939  0.70973  1.0000
  I   I114      1.0  0.41421  0.08553  0.39885  1.0000
  I   I115      1.0  0.59566  0.74128  0.75584  1.0000
  I   I116      1.0  0.56682  0.79543  0.69373  1.0000
  I   I117      1.0  0.00335  0.73890  0.28415  1.0000
  I   I118      1.0  0.10853  0.17836  0.03466  1.0000
  I   I119      1.0  0.53136  0.77815  0.73943  1.0000
  I   I120      1.0  0.28874  0.51878  0.55308  1.0000
  I   I121      1.0  0.37260  0.64500  0.54768  1.0000
  I   I122      1.0  0.88356  0.09405  0.97683  1.0000
  I   I123      1.0  0.60772  0.98642  0.32170  1.0000
  I   I124      1.0  0.36462  0.59183  0.72029  1.0000
  I   I125      1.0  0.46029  0.76857  0.55018  1.0000
  I   I126      1.0  0.09505  0.53420  0.60834  1.0000
  I   I127      1.0  0.78612  0.33594  0.18079  1.0000
  I   I128      1.0  0.43658  0.79520  0.01490  1.0000
  I   I129      1.0  0.38130  0.22996  0.66743  1.0000
  I   I130      1.0  0.02340  0.93328  0.96182  1.0000
  I   I131      1.0  0.50591  0.64995  0.01727  1.0000
  I   I132      1.0  0.53037  0.10591  0.85796  1.0000
  I   I133      1.0  0.92769  0.32594  0.02845  1.0000
  I   I134      1.0  0.52031  0.62793  0.60905  1.0000
  I   I135      1.0  0.19316  0.00337  0.61881  1.0000
  I   I136      1.0  0.44523  0.31351  0.94562  1.0000
  I   I137      1.0  0.10520  0.56274  0.32861  1.0000
  I   I138      1.0  0.83434  0.19710  0.87261  1.0000
  I   I139      1.0  0.47652  0.38280  0.31238  1.0000
  I   I140      1.0  0.61232  0.50645  0.05440  1.0000
  I   I141      1.0  0.35283  0.91767  0.81865  1.0000
  I   I142      1.0  0.51422  0.84634  0.15321  1.0000
  I   I143      1.0  0.93786  0.98916  0.21396  1.0000
  I   I144      1.0  0.47701  0.22409  0.03535  1.0000
  I   I145      1.0  0.66333  0.58242  0.25708  1.0000
  I   I146      1.0  0.64026  0.94648  0.57474  1.0000
  I   I147      1.0  0.97156  0.02498  0.16749  1.0000
  I   I148      1.0  0.09514  0.52082  0.36999  1.0000
  I   I149      1.0  0.97416  0.63083  0.61460  1.0000
  I   I150      1.0  0.11405  0.90366  0.51242  1.0000
  I   I151      1.0  0.94817  0.71515  0.24884  1.0000
  I   I152      1.0  0.53696  0.38369  0.89871  1.0000
  I   I153      1.0  0.10167  0.13588  0.65037  1.0000
  I   I154      1.0  0.39984  0.59643  0.90173  1.0000
  I   I155      1.0  0.19903  0.84628  0.63548  1.0000
  I   I156      1.0  0.90997  0.14574  0.11451  1.0000
  I   I157      1.0  0.74370  0.23612  0.36987  1.0000
  I   I158      1.0  0.09562  0.76721  0.77838  1.0000
  I   I159      1.0  0.61092  0.06131  0.27370  1.0000
  I   I160      1.0  0.58011  0.24764  0.45142  1.0000
  I   I161      1.0  0.46360  0.04661  0.44332  1.0000
  I   I162      1.0  0.63773  0.29499  0.51358  1.0000
  I   I163      1.0  0.96916  0.15350  0.08279  1.0000
  I   I164      1.0  0.69679  0.82601  0.23278  1.0000
  I   I165      1.0  0.59233  0.39327  0.70050  1.0000
  I   I166      1.0  0.10222  0.18051  0.93022  1.0000
  I   I167      1.0  0.45767  0.29117  0.70226  1.0000
  I   I168      1.0  0.79874  0.46784  0.33659  1.0000
  I   I169      1.0  0.96816  0.02794  0.00932  1.0000
  I   I170      1.0  0.90343  0.03874  0.94375  1.0000
  I   I171      1.0  0.89298  0.80246  0.56192  1.0000
  I   I172      1.0  0.51189  0.73370  0.55326  1.0000
  I   I173      1.0  0.08230  0.57994  0.55780  1.0000
  I   I174      1.0  0.36102  0.64749  0.75940  1.0000
  I   I175      1.0  0.86430  0.89414  0.33716  1.0000
  I   I176      1.0  0.23091  0.17022  0.83662  1.0000
  I   I177      1.0  0.79881  0.09904  0.49874  1.0000
  I   I178      1.0  0.58106  0.63442  0.04000  1.0000
  I   I179      1.0  0.88503  0.06074  0.33369  1.0000
  I   I180      1.0  0.11424  0.83965  0.84291  1.0000
  I   I181      1.0  0.34637  0.93319  0.29394  1.0000
  I   I182      1.0  0.25543  0.28083  0.81876  1.0000
  I   I183      1.0  0.67571  0.79626  0.70700  1.0000
  I   I184      1.0  0.76764  0.22239  0.97127  1.0000
  I   I185      1.0  0.90619  0.17428  0.87605  1.0000
  I   I186      1.0  0.40968  0.29272  0.01379  1.0000
  I   I187      1.0  0.60682  0.57199  0.08673  1.0000
  I   I188      1.0  0.35109  0.43192  0.21804  1.0000
  I   I189      1.0  0.69701  0.74161  0.67171  1.0000
  I   I190      1.0  0.63279  0.87798  0.28401  1.0000
  I   I191      1.0  0.41773  0.07253  0.51154  1.0000
  I   I192      1.0  0.93508  0.01760  0.11256  1.0000
  I   I193      1.0  0.13793  0.56010  0.56790  1.0000
  I   I194      1.0  0.77966  0.64226  0.55673  1.0000
  I   I195      1.0  0.97033  0.97115  0.15268  1.0000
  I   I196      1.0  0.52138  0.73516  0.95322  1.0000
  I   I197      1.0  0.01972  0.89367  0.26108  1.0000
  I   I198      1.0  0.07974  0.88330  0.49748  1.0000
  I   I199      1.0  0.18244  0.23139  0.80899  1.0000
  I   I200      1.0  0.75311  0.95653  0.06471  1.0000
  I   I201      1.0  0.07214  0.09910  0.58117  1.0000
  I   I202      1.0  0.88962  0.50983  0.83608  1.0000
  I   I203      1.0  0.22265  0.76886  0.52752  1.0000
  I   I204      1.0  0.27845  0.99371  0.26618  1.0000
  I   I205      1.0  0.59666  0.54726  0.37641  1.0000
  I   I206      1.0  0.45414  0.75420  0.94622  1.0000
  I   I207      1.0  0.74109  0.22803  0.53738  1.0000
  I   I208      1.0  0.89256  0.47867  0.77088  1.0000
  I   I209      1.0  0.48524  0.00537  0.51700  1.0000
  I   I210      1.0  0.79279  0.05489  0.60456  1.0000
  I   I211      1.0  0.14477  0.80427  0.11897  1.0000
  I   I212      1.0  0.12245  0.79553  0.80069  1.0000
  I   I213      1.0  0.23706  0.76117  0.32537  1.0000
  I   I214      1.0  0.51777  0.20422  0.08410  1.0000
  I   I215      1.0  0.36236  0.29280  0.63974  1.0000
  I   I216      1.0  0.40308  0.90671  0.78051  1.0000
  I   I217      1.0  0.84751  0.07562  0.97000  1.0000
  I   I218      1.0  0.61215  0.96067  0.24831  1.0000
  I   I219      1.0  0.39343  0.61009  0.46620  1.0000
  I   I220      1.0  0.75995  0.18761  0.36208  1.0000
  I   I221      1.0  0.14618  0.50602  0.55334  1.0000
  I   I222      1.0  0.51778  0.78258  0.52600  1.0000
  I   I223      1.0  0.93047  0.84680  0.32935  1.0000
  I   I224      1.0  0.17226  0.18818  0.83137  1.0000
  I   I225      1.0  0.75391  0.35391  0.28150  1.0000
  I   I226      1.0  0.55586  0.62121  0.98271  1.0000
  I   I227      1.0  0.46954  0.12003  0.90626  1.0000
  I   I228      1.0  0.05854  0.88339  0.89111  1.0000
  I   I229      1.0  0.99627  0.91251  0.35442  1.0000
  I   I230      1.0  0.49606  0.58813  0.64978  1.0000
  I   I231      1.0  0.89249  0.39972  0.13553  1.0000
  I   I232      1.0  0.45000  0.83424  0.95590  1.0000
  I   I233      1.0  0.11631  0.10534  0.45481  1.0000
  I   I234      1.0  0.40907  0.12149  0.46485  1.0000
  I   I235      1.0  0.38671  0.59198  0.00824  1.0000
  I   I236      1.0  0.35040  0.90016  0.73941  1.0000
  I   I237      1.0  0.50472  0.39825  0.21399  1.0000
  I   I238      1.0  0.21214  0.85238  0.05052  1.0000
  I   I239      1.0  0.07872  0.15060  0.98844  1.0000
  I   I240      1.0  0.57050  0.89050  0.13287  1.0000
  I   I241      1.0  0.65399  0.62648  0.30791  1.0000
  I   I242      1.0  0.63738  0.97517  0.68301  1.0000
  I   I243      1.0  0.00271  0.76732  0.36983  1.0000
  I   I244      1.0  0.72194  0.23506  0.93245  1.0000
  I   I245      1.0  0.67056  0.23735  0.98495  1.0000
  I   I246      1.0  0.11459  0.86569  0.42515  1.0000
  I   I247      1.0  0.25833  0.31986  0.85492  1.0000
  I   I248      1.0  0.57000  0.41124  0.78924  1.0000
  I   I249      1.0  0.03780  0.19204  0.64970  1.0000
  I   I250      1.0  0.80267  0.51245  0.88706  1.0000
  I   I251      1.0  0.21162  0.80086  0.70028  1.0000
  I   I252      1.0  0.87756  0.19324  0.11817  1.0000
  I   I253      1.0  0.55778  0.60112  0.29747  1.0000
  I   I254      1.0  0.48402  0.78857  0.98955  1.0000
  I   I255      1.0  0.59620  0.11090  0.34027  1.0000
  I   I256      1.0  0.12213  0.17326  0.74476  1.0000
  I   I257      1.0  0.39916  0.92821  0.24050  1.0000
  I   I258      1.0  0.60512  0.29504  0.44124  1.0000
  I   I259      1.0  0.56725  0.78640  0.80242  1.0000
  I   I260      1.0  0.66740  0.82326  0.31284  1.0000
  I   I261      1.0  0.54090  0.42612  0.68700  1.0000
  I   I262      1.0  0.47999  0.17343  0.00231  1.0000
  I   I263      1.0  0.81156  0.44630  0.17455  1.0000
  I   I264      1.0  0.06303  0.93199  0.89782  1.0000
  I   I265      1.0  0.95771  0.99518  0.96813  1.0000
  I   I266      1.0  0.18232  0.77177  0.48121  1.0000
  I   I267      1.0  0.42618  0.59990  0.55592  1.0000
  I   I268      1.0  0.24684  0.93978  0.60851  1.0000
  I   I269      1.0  0.13677  0.53156  0.65866  1.0000
  I   I270      1.0  0.32939  0.18032  0.07517  1.0000
  I   I271      1.0  0.87762  0.84875  0.38309  1.0000
  I   I272      1.0  0.46469  0.28288  0.60416  1.0000
  I   I273      1.0  0.76567  0.30522  0.26311  1.0000
  I   I274      1.0  0.06721  0.12692  0.46914  1.0000
  I   I275      1.0  0.87917  0.84060  0.62706  1.0000
  I   I276      1.0  0.08307  0.87579  0.96503  1.0000
  I   I277      1.0  0.54797  0.61296  0.08725  1.0000
  I   I278      1.0  0.54034  0.56819  0.61518  1.0000
  I   I279      1.0  0.38287  0.42933  0.31814  1.0000
  I   I280      1.0  0.05120  0.56145  0.32225  1.0000
  I   I281      1.0  0.08781  0.07384  0.44934  1.0000
  I   I282      1.0  0.39080  0.33406  0.93428  1.0000
  I   I283      1.0  0.40132  0.63158  0.98973  1.0000
  I   I284      1.0  0.74857  0.52699  0.31035  1.0000
  I   I285      1.0  0.66013  0.75111  0.76307  1.0000
  I   I286      1.0  0.25380  0.82668  0.97861  1.0000
  I   I287      1.0  0.16699  0.48844  0.64369  1.0000
  I   I288      1.0  0.52086  0.88584  0.20189  1.0000
  I   I289      1.0  0.35520  0.64449  0.93622  1.0000
  I   I290      1.0  0.43446  0.02015  0.45520  1.0000
  I   I291      1.0  0.56760  0.00612  0.70776  1.0000
  I   I292      1.0  0.09179  0.52260  0.25884  1.0000
  I   I293      1.0  0.61317  0.28804  0.01172  1.0000
  I   I294      1.0  0.74926  0.97594  0.75757  1.0000
  I   I295      1.0  0.30486  0.28881  0.89937  1.0000
  I   I296      1.0  0.76128  0.00313  0.05160  1.0000
  I   I297      1.0  0.10660  0.08914  0.66208  1.0000
  I   I298      1.0  0.04293  0.85908  0.32978  1.0000
  I   I299      1.0  0.81393  0.46140  0.86466  1.0000
  I   I300      1.0  0.38802  0.87374  0.84629  1.0000
  I   I301      1.0  0.59577  0.05844  0.36974  1.0000
  I   I302      1.0  0.53091  0.58875  0.21966  1.0000
  I   I303      1.0  0.14225  0.19597  0.68017  1.0000
  I   I304      1.0  0.61026  0.28823  0.59484  1.0000
  I   I305      1.0  0.84260  0.53109  0.78648  1.0000
  I   I306      1.0  0.30391  0.28894  0.79564  1.0000
  I   I307      1.0  0.35784  0.97177  0.27586  1.0000
  I   I308      1.0  0.09001  0.25909  0.27211  1.0000
  I   I309      1.0  0.59469  0.37407  0.95713  1.0000
  I   I310      1.0  0.59174  0.05280  0.15923  1.0000
  I   I311      1.0  0.78941  0.49261  0.11994  1.0000
  I   I312      1.0  0.23663  0.51316  0.57101  1.0000
  I   I313      1.0  0.41769  0.64047  0.47258  1.0000
  I   I314      1.0  0.91838  0.03255  0.02709  1.0000
  I   I315      1.0  0.55587  0.00363  0.28916  1.0000
  I   I316      1.0  0.48529  0.78064  0.61440  1.0000
  I   I317      1.0  0.20835  0.96996  0.54187  1.0000
  I   I318      1.0  0.10119  0.52079  0.51158  1.0000
  I   I319      1.0  0.80301  0.09800  0.60307  1.0000
  I   I320      1.0  0.48645  0.74126  0.02404  1.0000
  I   I321      1.0  0.94699  0.68461  0.16986  1.0000
  I   I322      1.0  0.69089  0.62840  0.85015  1.0000
  I   I323      1.0  0.86944  0.05299  0.41172  1.0000
  I   I324      1.0  0.07318  0.92360  0.98656  1.0000
  I   I325      1.0  0.35968  0.91940  0.13017  1.0000
  I   I326      1.0  0.32593  0.25340  0.98572  1.0000
  I   I327      1.0  0.81305  0.13903  0.44227  1.0000
  I   I328      1.0  0.93036  0.29114  0.09437  1.0000
  I   I329      1.0  0.88170  0.16799  0.79895  1.0000
  I   I330      1.0  0.45519  0.09409  0.47080  1.0000
  I   I331      1.0  0.64565  0.77713  0.66755  1.0000
  I   I332      1.0  0.43747  0.02740  0.56607  1.0000
  I   I333      1.0  0.66732  0.65757  0.74743  1.0000
  I   I334      1.0  0.53453  0.82800  0.23432  1.0000
  I   I335      1.0  0.96801  0.79864  0.28128  1.0000
  I   I336      1.0  0.12919  0.12509  0.94777  1.0000
  I   I337      1.0  0.60585  0.00963  0.12329  1.0000
  I   I338      1.0  0.11092  0.24452  0.38242  1.0000
  I   I339      1.0  0.60770  0.00913  0.74923  1.0000
  I   I340      1.0  0.12872  0.46289  0.05460  1.0000
  I   I341      1.0  0.96458  0.62242  0.70560  1.0000
  I   I342      1.0  0.77535  0.99503  0.68256  1.0000
  I   I343      1.0  0.92076  0.68547  0.26249  1.0000
  I   I344      1.0  0.76450  0.96785  0.16554  1.0000
  I   I345      1.0  0.08341  0.17951  0.68880  1.0000
  I   I346      1.0  0.19427  0.77720  0.19169  1.0000
  I   I347      1.0  0.84512  0.50705  0.88151  1.0000
  I   I348      1.0  0.93455  0.14387  0.03937  1.0000
  I   I349      1.0  0.55401  0.08813  0.30699  1.0000
  I   I350      1.0  0.52598  0.56749  0.34271  1.0000
  I   I351      1.0  0.47328  0.78235  0.90059  1.0000
  I   I352      1.0  0.61112  0.25711  0.51720  1.0000
  I   I353      1.0  0.09856  0.20617  0.62707  1.0000
  I   I354      1.0  0.27760  0.26245  0.95488  1.0000
  I   I355      1.0  0.90533  0.19408  0.01174  1.0000
  I   I356      1.0  0.94904  0.77154  0.34040  1.0000
  I   I357      1.0  0.22302  0.81841  0.40477  1.0000
  I   I358      1.0  0.75906  0.50765  0.40437  1.0000
  I   I359      1.0  0.74738  0.48853  0.14532  1.0000
  I   I360      1.0  0.20161  0.48242  0.58984  1.0000
  I   I361      1.0  0.82575  0.85086  0.60773  1.0000
  I   I362      1.0  0.94361  0.05428  0.92132  1.0000
  I   I363      1.0  0.20095  0.78002  0.40068  1.0000
  I   I364      1.0  0.34322  0.61811  0.82784  1.0000
  I   I365      1.0  0.72934  0.18382  0.46071  1.0000
  I   I366      1.0  0.11413  0.55492  0.47573  1.0000
  I   I367      1.0  0.83453  0.05013  0.52641  1.0000
  I   I368      1.0  0.16626  0.41970  0.14450  1.0000
  I   I369      1.0  0.36419  0.26978  0.73885  1.0000
  I   I370      1.0  0.05554  0.15418  0.57616  1.0000
  I   I371      1.0  0.85913  0.11270  0.50702  1.0000
  I   I372      1.0  0.80074  0.52077  0.37247  1.0000
  I   I373      1.0  0.36397  0.96387  0.16147  1.0000
  I   I374      1.0  0.54178  0.60445  0.70301  1.0000
  I   I375      1.0  0.86115  0.12381  0.37017  1.0000
  I   I376      1.0  0.78800  0.45009  0.07448  1.0000
  I   I377      1.0  0.86927  0.14713  0.86143  1.0000
  I   I378      1.0  0.39703  0.34892  0.02124  1.0000
  I   I379      1.0  0.46157  0.38257  0.19654  1.0000
  I   I380      1.0  0.62777  0.51564  0.14490  1.0000
  I   I381      1.0  0.92870  0.20526  0.10283  1.0000
  I   I382      1.0  0.53633  0.87733  0.09178  1.0000
  I   I383      1.0  0.25010  0.83810  0.69283  1.0000
  I   I384      1.0  0.22611  0.46236  0.68378  1.0000
