data_image0
_chemical_formula_structural       Ti96I384
_chemical_formula_sum              "Ti96 I384"
_cell_length_a       52.3221
_cell_length_b       52.5452
_cell_length_c       25.2928
_cell_angle_alpha    88.7757
_cell_angle_beta     88.7757
_cell_angle_gamma    62.1586

_space_group_name_H-M_alt    "P 1"
_space_group_IT_number       1

loop_
  _space_group_symop_operation_xyz
  'x, y, z'

loop_
  _atom_site_type_symbol
  _atom_site_label
  _atom_site_symmetry_multiplicity
  _atom_site_fract_x
  _atom_site_fract_y
  _atom_site_fract_z
  _atom_site_occupancy
  Ti  Ti1       1.0  0.59269  0.79705  0.28177  1.0000
  Ti  Ti2       1.0  0.13087  0.93998  0.10157  1.0000
  Ti  Ti3       1.0  0.42006  0.91456  0.21615  1.0000
  Ti  Ti4       1.0  0.27700  0.04026  0.46898  1.0000
  Ti  Ti5       1.0  0.17530  0.34080  0.48170  1.0000
  Ti  Ti6       1.0  0.17421  0.15867  0.90690  1.0000
  Ti  Ti7       1.0  0.97028  0.77721  0.08853  1.0000
  Ti  Ti8       1.0  0.95413  0.02261  0.53986  1.0000
  Ti  Ti9       1.0  0.90044  0.78518  0.36279  1.0000
  Ti  Ti10      1.0  0.29942  0.77929  0.92969  1.0000
  Ti  Ti11      1.0  0.94354  0.74230  0.78228  1.0000
  Ti  Ti12      1.0  0.08275  0.76531  0.79994  1.0000
  Ti  Ti13      1.0  0.33312  0.18891  0.31666  1.0000
  Ti  Ti14      1.0  0.38675  0.09510  0.67137  1.0000
  Ti  Ti15      1.0  0.28744  0.19004  0.06247  1.0000
  Ti  Ti16      1.0  0.26900  0.58292  0.14987  1.0000
  Ti  Ti17      1.0  0.18292  0.63434  0.41122  1.0000
  Ti  Ti18      1.0  0.29025  0.42585  0.51674  1.0000
  Ti  Ti19      1.0  0.41795  0.65344  0.47045  1.0000
  Ti  Ti20      1.0  0.62745  0.78986  0.78005  1.0000
  Ti  Ti21      1.0  0.34619  0.55451  0.76500  1.0000
  Ti  Ti22      1.0  0.42410  0.95239  0.77973  1.0000
  Ti  Ti23      1.0  0.66255  0.85434  0.06978  1.0000
  Ti  Ti24      1.0  0.47356  0.78211  0.77566  1.0000
  Ti  Ti25      1.0  0.34795  0.27880  0.77162  1.0000
  Ti  Ti26      1.0  0.33434  0.32160  0.07099  1.0000
  Ti  Ti27      1.0  0.52714  0.45554  0.65261  1.0000
  Ti  Ti28      1.0  0.41844  0.56304  0.27473  1.0000
  Ti  Ti29      1.0  0.75104  0.42380  0.92069  1.0000
  Ti  Ti30      1.0  0.64992  0.57308  0.83128  1.0000
  Ti  Ti31      1.0  0.94037  0.49064  0.02881  1.0000
  Ti  Ti32      1.0  0.78252  0.42469  0.61212  1.0000
  Ti  Ti33      1.0  0.85437  0.51476  0.81066  1.0000
  Ti  Ti34      1.0  0.77704  0.04168  0.99414  1.0000
  Ti  Ti35      1.0  0.72366  0.64662  0.15742  1.0000
  Ti  Ti36      1.0  0.81546  0.60223  0.45718  1.0000
  Ti  Ti37      1.0  0.69551  0.21692  0.26636  1.0000
  Ti  Ti38      1.0  0.67497  0.36096  0.20802  1.0000
  Ti  Ti39      1.0  0.53049  0.33358  0.89974  1.0000
  Ti  Ti40      1.0  0.86995  0.25717  0.96741  1.0000
  Ti  Ti41      1.0  0.75206  0.28125  0.56567  1.0000
  Ti  Ti42      1.0  0.29133  0.79665  0.30133  1.0000
  Ti  Ti43      1.0  0.79683  0.42021  0.30527  1.0000
  Ti  Ti44      1.0  0.00688  0.52644  0.54836  1.0000
  Ti  Ti45      1.0  0.07270  0.48082  0.83517  1.0000
  Ti  Ti46      1.0  0.66824  0.97633  0.65530  1.0000
  Ti  Ti47      1.0  0.60465  0.04832  0.37530  1.0000
  Ti  Ti48      1.0  0.55797  0.13800  0.79179  1.0000
  Ti  Ti49      1.0  0.49001  0.83324  0.27056  1.0000
  Ti  Ti50      1.0  0.10969  0.89133  0.18391  1.0000
  Ti  Ti51      1.0  0.10667  0.03640  0.09450  1.0000
  Ti  Ti52      1.0  0.25833  0.98097  0.45450  1.0000
  Ti  Ti53      1.0  0.18698  0.26223  0.49550  1.0000
  Ti  Ti54      1.0  0.15520  0.23892  0.85876  1.0000
  Ti  Ti55      1.0  0.90763  0.79933  0.20130  1.0000
  Ti  Ti56      1.0  0.92180  0.07833  0.47860  1.0000
  Ti  Ti57      1.0  0.84676  0.86165  0.39989  1.0000
  Ti  Ti58      1.0  0.24545  0.78602  0.78549  1.0000
  Ti  Ti59      1.0  0.32087  0.71376  0.02924  1.0000
  Ti  Ti60      1.0  0.01666  0.74091  0.74046  1.0000
  Ti  Ti61      1.0  0.33258  0.13428  0.18324  1.0000
  Ti  Ti62      1.0  0.35321  0.22890  0.40267  1.0000
  Ti  Ti63      1.0  0.32713  0.13783  0.73274  1.0000
  Ti  Ti64      1.0  0.24953  0.46302  0.39264  1.0000
  Ti  Ti65      1.0  0.20238  0.61468  0.24065  1.0000
  Ti  Ti66      1.0  0.10825  0.62407  0.48024  1.0000
  Ti  Ti67      1.0  0.43134  0.66170  0.64696  1.0000
  Ti  Ti68      1.0  0.71176  0.73258  0.85316  1.0000
  Ti  Ti69      1.0  0.28888  0.59710  0.63690  1.0000
  Ti  Ti70      1.0  0.44009  0.87474  0.78101  1.0000
  Ti  Ti71      1.0  0.71740  0.84006  0.21357  1.0000
  Ti  Ti72      1.0  0.65582  0.90363  0.92546  1.0000
  Ti  Ti73      1.0  0.58025  0.44100  0.58172  1.0000
  Ti  Ti74      1.0  0.29401  0.30670  0.92641  1.0000
  Ti  Ti75      1.0  0.26444  0.40593  0.13084  1.0000
  Ti  Ti76      1.0  0.60322  0.63485  0.72296  1.0000
  Ti  Ti77      1.0  0.50987  0.50580  0.26982  1.0000
  Ti  Ti78      1.0  0.67489  0.48098  0.84759  1.0000
  Ti  Ti79      1.0  0.91899  0.44514  0.92723  1.0000
  Ti  Ti80      1.0  0.99260  0.50800  0.11678  1.0000
  Ti  Ti81      1.0  0.83861  0.43882  0.66410  1.0000
  Ti  Ti82      1.0  0.83838  0.97469  0.08068  1.0000
  Ti  Ti83      1.0  0.78967  0.58265  0.15326  1.0000
  Ti  Ti84      1.0  0.73925  0.63787  0.47646  1.0000
  Ti  Ti85      1.0  0.66394  0.16043  0.24563  1.0000
  Ti  Ti86      1.0  0.71498  0.26088  0.14747  1.0000
  Ti  Ti87      1.0  0.52714  0.41344  0.93080  1.0000
  Ti  Ti88      1.0  0.92592  0.20289  0.94476  1.0000
  Ti  Ti89      1.0  0.71035  0.30928  0.71209  1.0000
  Ti  Ti90      1.0  0.24065  0.78148  0.27687  1.0000
  Ti  Ti91      1.0  0.15279  0.49234  0.79084  1.0000
  Ti  Ti92      1.0  0.83162  0.34584  0.28943  1.0000
  Ti  Ti93      1.0  0.98887  0.54552  0.71118  1.0000
  Ti  Ti94      1.0  0.58604  0.07344  0.84453  1.0000
  Ti  Ti95      1.0  0.61396  0.00677  0.53400  1.0000
  Ti  Ti96      1.0  0.54503  0.06355  0.27845  1.0000
  I   I1        1.0  0.05772  0.89735  0.20706  1.0000
  I   I2        1.0  0.15861  0.92615  0.00990  1.0000
  I   I3        1.0  0.47523  0.79599  0.23270  1.0000
  I   I4        1.0  0.22923  0.21927  0.55507  1.0000
  I   I5        1.0  0.20398  0.19484  0.89342  1.0000
  I   I6        1.0  0.22676  0.11530  0.90834  1.0000
  I   I7        1.0  0.90572  0.05941  0.58766  1.0000
  I   I8        1.0  0.00553  0.98960  0.58973  1.0000
  I   I9        1.0  0.90414  0.82691  0.28542  1.0000
  I   I10       1.0  0.28620  0.77108  0.02932  1.0000
  I   I11       1.0  0.00848  0.70040  0.78715  1.0000
  I   I12       1.0  0.27514  0.73531  0.73583  1.0000
  I   I13       1.0  0.37049  0.21499  0.28900  1.0000
  I   I14       1.0  0.37271  0.14653  0.73067  1.0000
  I   I15       1.0  0.27715  0.15076  0.13483  1.0000
  I   I16       1.0  0.21028  0.56771  0.19159  1.0000
  I   I17       1.0  0.10768  0.63984  0.38302  1.0000
  I   I18       1.0  0.31150  0.41503  0.40533  1.0000
  I   I19       1.0  0.71332  0.68636  0.81484  1.0000
  I   I20       1.0  0.31034  0.59769  0.53273  1.0000
  I   I21       1.0  0.31158  0.58525  0.84424  1.0000
  I   I22       1.0  0.67838  0.85205  0.28014  1.0000
  I   I23       1.0  0.61892  0.86718  0.13125  1.0000
  I   I24       1.0  0.49152  0.83054  0.74155  1.0000
  I   I25       1.0  0.25076  0.29477  0.90118  1.0000
  I   I26       1.0  0.29733  0.38017  0.04538  1.0000
  I   I27       1.0  0.49379  0.47901  0.57104  1.0000
  I   I28       1.0  0.45777  0.50121  0.26056  1.0000
  I   I29       1.0  0.65864  0.45651  0.92082  1.0000
  I   I30       1.0  0.61909  0.57332  0.72346  1.0000
  I   I31       1.0  0.00239  0.46072  0.03417  1.0000
  I   I32       1.0  0.82401  0.45424  0.55572  1.0000
  I   I33       1.0  0.91229  0.47056  0.83477  1.0000
  I   I34       1.0  0.70595  0.70110  0.16464  1.0000
  I   I35       1.0  0.74337  0.59632  0.41397  1.0000
  I   I36       1.0  0.87189  0.99301  0.12981  1.0000
  I   I37       1.0  0.66917  0.27289  0.21521  1.0000
  I   I38       1.0  0.52270  0.41981  0.03268  1.0000
  I   I39       1.0  0.62057  0.18130  0.18353  1.0000
  I   I40       1.0  0.72603  0.33545  0.78500  1.0000
  I   I41       1.0  0.21698  0.78626  0.18165  1.0000
  I   I42       1.0  0.87833  0.20091  0.99805  1.0000
  I   I43       1.0  0.81164  0.32324  0.22104  1.0000
  I   I44       1.0  0.98461  0.50832  0.64460  1.0000
  I   I45       1.0  0.02844  0.50675  0.90212  1.0000
  I   I46       1.0  0.60954  0.02133  0.63652  1.0000
  I   I47       1.0  0.55679  0.02902  0.37381  1.0000
  I   I48       1.0  0.56088  0.07985  0.74959  1.0000
  I   I49       1.0  0.54372  0.84801  0.24707  1.0000
  I   I50       1.0  0.16648  0.89340  0.15174  1.0000
  I   I51       1.0  0.07819  0.05890  0.17900  1.0000
  I   I52       1.0  0.25890  0.07483  0.55569  1.0000
  I   I53       1.0  0.16333  0.31142  0.56615  1.0000
  I   I54       1.0  0.15785  0.24804  0.75650  1.0000
  I   I55       1.0  0.91069  0.77630  0.08683  1.0000
  I   I56       1.0  0.95032  0.09514  0.40812  1.0000
  I   I57       1.0  0.84128  0.81723  0.34330  1.0000
  I   I58       1.0  0.34802  0.77938  0.95754  1.0000
  I   I59       1.0  0.28742  0.70747  0.10451  1.0000
  I   I60       1.0  0.04565  0.78160  0.70812  1.0000
  I   I61       1.0  0.36988  0.13145  0.25980  1.0000
  I   I62       1.0  0.40934  0.21200  0.43540  1.0000
  I   I63       1.0  0.37177  0.08311  0.76484  1.0000
  I   I64       1.0  0.29037  0.62124  0.14874  1.0000
  I   I65       1.0  0.21159  0.64832  0.31717  1.0000
  I   I66       1.0  0.10495  0.65155  0.56759  1.0000
  I   I67       1.0  0.47226  0.63707  0.71712  1.0000
  I   I68       1.0  0.58178  0.77957  0.79849  1.0000
  I   I69       1.0  0.33186  0.60319  0.68867  1.0000
  I   I70       1.0  0.38476  0.92443  0.79480  1.0000
  I   I71       1.0  0.71003  0.80887  0.12553  1.0000
  I   I72       1.0  0.64606  0.95217  0.95763  1.0000
  I   I73       1.0  0.55501  0.49436  0.63282  1.0000
  I   I74       1.0  0.33896  0.32013  0.96306  1.0000
  I   I75       1.0  0.21747  0.40645  0.17377  1.0000
  I   I76       1.0  0.37354  0.60714  0.32225  1.0000
  I   I77       1.0  0.51871  0.51592  0.17450  1.0000
  I   I78       1.0  0.68949  0.52625  0.78921  1.0000
  I   I79       1.0  0.92930  0.44020  0.04080  1.0000
  I   I80       1.0  0.97119  0.55896  0.16726  1.0000
  I   I81       1.0  0.83914  0.45064  0.76507  1.0000
  I   I82       1.0  0.77399  0.01148  0.91872  1.0000
  I   I83       1.0  0.70922  0.63789  0.25613  1.0000
  I   I84       1.0  0.71269  0.68148  0.40070  1.0000
  I   I85       1.0  0.69566  0.17806  0.18862  1.0000
  I   I86       1.0  0.76034  0.25677  0.09211  1.0000
  I   I87       1.0  0.58116  0.30411  0.92933  1.0000
  I   I88       1.0  0.87596  0.30082  0.92077  1.0000
  I   I89       1.0  0.79919  0.27578  0.51336  1.0000
  I   I90       1.0  0.29469  0.84276  0.32386  1.0000
  I   I91       1.0  0.15046  0.50625  0.69239  1.0000
  I   I92       1.0  0.78478  0.37726  0.35635  1.0000
  I   I93       1.0  0.03081  0.55013  0.76599  1.0000
  I   I94       1.0  0.56661  0.03831  0.88186  1.0000
  I   I95       1.0  0.63229  0.99495  0.43587  1.0000
  I   I96       1.0  0.55400  0.08920  0.19808  1.0000
  I   I97       1.0  0.47010  0.86657  0.17976  1.0000
  I   I98       1.0  0.61572  0.82434  0.32827  1.0000
  I   I99       1.0  0.14604  0.97741  0.14460  1.0000
  I   I100      1.0  0.30144  0.92269  0.44563  1.0000
  I   I101      1.0  0.32579  0.04191  0.48099  1.0000
  I   I102      1.0  0.17529  0.37702  0.55501  1.0000
  I   I103      1.0  0.91203  0.75097  0.25609  1.0000
  I   I104      1.0  0.01794  0.77954  0.11143  1.0000
  I   I105      1.0  0.80783  0.87524  0.47176  1.0000
  I   I106      1.0  0.07989  0.81556  0.78346  1.0000
  I   I107      1.0  0.33912  0.71526  0.92888  1.0000
  I   I108      1.0  0.98153  0.75338  0.65799  1.0000
  I   I109      1.0  0.31166  0.10945  0.24935  1.0000
  I   I110      1.0  0.37877  0.16164  0.39705  1.0000
  I   I111      1.0  0.43973  0.05413  0.66109  1.0000
  I   I112      1.0  0.27316  0.48196  0.51462  1.0000
  I   I113      1.0  0.26843  0.58199  0.26539  1.0000
  I   I114      1.0  0.14830  0.69022  0.41541  1.0000
  I   I115      1.0  0.41978  0.62073  0.64647  1.0000
  I   I116      1.0  0.45993  0.65324  0.41253  1.0000
  I   I117      1.0  0.61234  0.84569  0.77758  1.0000
  I   I118      1.0  0.41474  0.84204  0.73123  1.0000
  I   I119      1.0  0.40513  0.98864  0.85807  1.0000
  I   I120      1.0  0.67703  0.81132  0.00038  1.0000
  I   I121      1.0  0.48826  0.43723  0.68342  1.0000
  I   I122      1.0  0.34767  0.25645  0.88411  1.0000
  I   I123      1.0  0.36545  0.34219  0.12392  1.0000
  I   I124      1.0  0.66797  0.60349  0.78205  1.0000
  I   I125      1.0  0.43649  0.58620  0.19702  1.0000
  I   I126      1.0  0.71055  0.48170  0.94703  1.0000
  I   I127      1.0  0.85995  0.49090  0.91386  1.0000
  I   I128      1.0  0.94334  0.50060  0.13799  1.0000
  I   I129      1.0  0.77589  0.47551  0.66666  1.0000
  I   I130      1.0  0.78360  0.58829  0.53548  1.0000
  I   I131      1.0  0.79502  0.02878  0.11535  1.0000
  I   I132      1.0  0.84398  0.57128  0.15822  1.0000
  I   I133      1.0  0.48981  0.46437  0.89265  1.0000
  I   I134      1.0  0.74091  0.21458  0.21521  1.0000
  I   I135      1.0  0.62585  0.40042  0.16867  1.0000
  I   I136      1.0  0.34232  0.74891  0.31456  1.0000
  I   I137      1.0  0.94410  0.15246  0.89333  1.0000
  I   I138      1.0  0.76689  0.28542  0.67114  1.0000
  I   I139      1.0  0.11329  0.50883  0.86913  1.0000
  I   I140      1.0  0.86656  0.30939  0.35713  1.0000
  I   I141      1.0  0.03771  0.53699  0.62867  1.0000
  I   I142      1.0  0.58401  0.13980  0.70045  1.0000
  I   I143      1.0  0.66820  0.00896  0.56186  1.0000
  I   I144      1.0  0.62485  0.01535  0.29595  1.0000
  I   I145      1.0  0.54552  0.78332  0.25353  1.0000
  I   I146      1.0  0.10061  0.91473  0.06799  1.0000
  I   I147      1.0  0.38345  0.89372  0.21715  1.0000
  I   I148      1.0  0.23284  0.95513  0.51891  1.0000
  I   I149      1.0  0.14598  0.25032  0.48322  1.0000
  I   I150      1.0  0.13273  0.21368  0.94074  1.0000
  I   I151      1.0  0.96949  0.76607  0.19921  1.0000
  I   I152      1.0  0.96889  0.01919  0.43447  1.0000
  I   I153      1.0  0.88810  0.81469  0.45732  1.0000
  I   I154      1.0  0.26445  0.83432  0.94415  1.0000
  I   I155      1.0  0.92929  0.74106  0.87963  1.0000
  I   I156      1.0  0.05790  0.70736  0.67146  1.0000
  I   I157      1.0  0.30682  0.19493  0.20630  1.0000
  I   I158      1.0  0.37399  0.06599  0.59600  1.0000
  I   I159      1.0  0.29502  0.15611  0.97668  1.0000
  I   I160      1.0  0.29156  0.42696  0.62364  1.0000
  I   I161      1.0  0.19631  0.58783  0.34499  1.0000
  I   I162      1.0  0.30719  0.36696  0.51486  1.0000
  I   I163      1.0  0.40482  0.70610  0.71046  1.0000
  I   I164      1.0  0.72702  0.72007  0.95894  1.0000
  I   I165      1.0  0.34328  0.51282  0.81747  1.0000
  I   I166      1.0  0.43493  0.90316  0.68710  1.0000
  I   I167      1.0  0.67747  0.88635  0.15283  1.0000
  I   I168      1.0  0.44711  0.75348  0.80486  1.0000
  I   I169      1.0  0.37570  0.22308  0.74098  1.0000
  I   I170      1.0  0.29033  0.30463  0.03342  1.0000
  I   I171      1.0  0.57825  0.41789  0.69531  1.0000
  I   I172      1.0  0.60078  0.68573  0.72242  1.0000
  I   I173      1.0  0.75623  0.42174  0.02751  1.0000
  I   I174      1.0  0.63311  0.53236  0.88159  1.0000
  I   I175      1.0  0.93774  0.49362  0.92441  1.0000
  I   I176      1.0  0.80656  0.37835  0.55541  1.0000
  I   I177      1.0  0.86378  0.50860  0.71101  1.0000
  I   I178      1.0  0.83905  0.00889  0.97510  1.0000
  I   I179      1.0  0.77728  0.63553  0.20345  1.0000
  I   I180      1.0  0.80675  0.61166  0.35327  1.0000
  I   I181      1.0  0.63909  0.22716  0.27440  1.0000
  I   I182      1.0  0.71904  0.30296  0.23676  1.0000
  I   I183      1.0  0.50769  0.30922  0.95760  1.0000
  I   I184      1.0  0.87770  0.23641  0.87199  1.0000
  I   I185      1.0  0.77976  0.22173  0.56242  1.0000
  I   I186      1.0  0.19149  0.78906  0.31604  1.0000
  I   I187      1.0  0.79120  0.40124  0.21245  1.0000
  I   I188      1.0  0.02887  0.47304  0.51103  1.0000
  I   I189      1.0  0.04485  0.45835  0.78942  1.0000
  I   I190      1.0  0.64797  0.95078  0.71774  1.0000
  I   I191      1.0  0.58406  0.06534  0.48970  1.0000
  I   I192      1.0  0.54755  0.18701  0.83045  1.0000
  I   I193      1.0  0.63305  0.76905  0.21334  1.0000
  I   I194      1.0  0.08553  0.95298  0.18889  1.0000
  I   I195      1.0  0.39587  0.96041  0.28123  1.0000
  I   I196      1.0  0.24567  0.08592  0.41083  1.0000
  I   I197      1.0  0.12725  0.34828  0.44018  1.0000
  I   I198      1.0  0.16758  0.17244  0.80278  1.0000
  I   I199      1.0  0.94607  0.81363  0.00442  1.0000
  I   I200      1.0  0.89201  0.13148  0.49636  1.0000
  I   I201      1.0  0.90654  0.73773  0.40845  1.0000
  I   I202      1.0  0.29438  0.79298  0.81343  1.0000
  I   I203      1.0  0.89050  0.76470  0.73447  1.0000
  I   I204      1.0  0.13981  0.73128  0.77860  1.0000
  I   I205      1.0  0.29964  0.17222  0.36331  1.0000
  I   I206      1.0  0.37662  0.12702  0.58954  1.0000
  I   I207      1.0  0.23203  0.21917  0.07275  1.0000
  I   I208      1.0  0.30796  0.53102  0.17444  1.0000
  I   I209      1.0  0.22982  0.61952  0.46326  1.0000
  I   I210      1.0  0.23971  0.42949  0.46763  1.0000
  I   I211      1.0  0.38008  0.68642  0.40710  1.0000
  I   I212      1.0  0.76153  0.72495  0.82076  1.0000
  I   I213      1.0  0.33232  0.53658  0.66743  1.0000
  I   I214      1.0  0.38604  0.98305  0.70988  1.0000
  I   I215      1.0  0.69541  0.86686  0.99364  1.0000
  I   I216      1.0  0.48368  0.76162  0.67955  1.0000
  I   I217      1.0  0.32124  0.29652  0.67842  1.0000
  I   I218      1.0  0.36565  0.26699  0.09292  1.0000
  I   I219      1.0  0.63295  0.40360  0.57373  1.0000
  I   I220      1.0  0.37524  0.55709  0.22864  1.0000
  I   I221      1.0  0.75951  0.37334  0.91931  1.0000
  I   I222      1.0  0.67075  0.57912  0.92632  1.0000
  I   I223      1.0  0.88428  0.53099  0.03247  1.0000
  I   I224      1.0  0.74896  0.40978  0.66256  1.0000
  I   I225      1.0  0.79852  0.55074  0.80916  1.0000
  I   I226      1.0  0.77481  0.08657  0.95029  1.0000
  I   I227      1.0  0.69500  0.63092  0.09847  1.0000
  I   I228      1.0  0.86534  0.60108  0.47592  1.0000
  I   I229      1.0  0.72802  0.16552  0.32264  1.0000
  I   I230      1.0  0.70878  0.38274  0.21944  1.0000
  I   I231      1.0  0.48386  0.39297  0.94699  1.0000
  I   I232      1.0  0.81343  0.28339  0.97904  1.0000
  I   I233      1.0  0.71838  0.25950  0.75774  1.0000
  I   I234      1.0  0.27641  0.72517  0.26973  1.0000
  I   I235      1.0  0.75731  0.46825  0.36467  1.0000
  I   I236      1.0  0.95365  0.55122  0.51446  1.0000
  I   I237      1.0  0.11042  0.47011  0.74499  1.0000
  I   I238      1.0  0.71590  0.93101  0.62285  1.0000
  I   I239      1.0  0.63664  0.07513  0.37179  1.0000
  I   I240      1.0  0.51213  0.15990  0.71175  1.0000
  I   I241      1.0  0.59803  0.76426  0.36195  1.0000
  I   I242      1.0  0.09521  0.99750  0.04186  1.0000
  I   I243      1.0  0.40148  0.95215  0.14676  1.0000
  I   I244      1.0  0.21847  0.03432  0.45716  1.0000
  I   I245      1.0  0.19755  0.36262  0.41342  1.0000
  I   I246      1.0  0.14336  0.13623  0.92979  1.0000
  I   I247      1.0  0.99244  0.73048  0.03378  1.0000
  I   I248      1.0  0.96812  0.07356  0.54407  1.0000
  I   I249      1.0  0.95485  0.77465  0.36859  1.0000
  I   I250      1.0  0.25717  0.75993  0.88789  1.0000
  I   I251      1.0  0.94410  0.69595  0.73902  1.0000
  I   I252      1.0  0.08135  0.78012  0.89651  1.0000
  I   I253      1.0  0.29814  0.24224  0.34106  1.0000
  I   I254      1.0  0.29943  0.18881  0.67974  1.0000
  I   I255      1.0  0.28881  0.23262  0.00832  1.0000
  I   I256      1.0  0.26203  0.57169  0.05656  1.0000
  I   I257      1.0  0.16757  0.60687  0.48282  1.0000
  I   I258      1.0  0.27461  0.48549  0.33260  1.0000
  I   I259      1.0  0.41426  0.60716  0.45795  1.0000
  I   I260      1.0  0.68613  0.77951  0.77618  1.0000
  I   I261      1.0  0.39270  0.55552  0.80221  1.0000
  I   I262      1.0  0.46611  0.95977  0.74907  1.0000
  I   I263      1.0  0.61886  0.88704  0.99984  1.0000
  I   I264      1.0  0.52606  0.74513  0.80396  1.0000
  I   I265      1.0  0.38517  0.29413  0.76952  1.0000
  I   I266      1.0  0.29645  0.33813  0.15547  1.0000
  I   I267      1.0  0.50301  0.48830  0.74205  1.0000
  I   I268      1.0  0.46292  0.55296  0.33574  1.0000
  I   I269      1.0  0.79676  0.42686  0.88739  1.0000
  I   I270      1.0  0.59414  0.62626  0.83422  1.0000
  I   I271      1.0  0.95741  0.53421  0.02055  1.0000
  I   I272      1.0  0.74271  0.46543  0.55225  1.0000
  I   I273      1.0  0.86991  0.55566  0.81931  1.0000
  I   I274      1.0  0.73039  0.05270  0.04141  1.0000
  I   I275      1.0  0.78116  0.54804  0.21940  1.0000
  I   I276      1.0  0.84041  0.54883  0.43376  1.0000
  I   I277      1.0  0.69430  0.25065  0.34718  1.0000
  I   I278      1.0  0.65867  0.35363  0.30194  1.0000
  I   I279      1.0  0.52713  0.31231  0.81115  1.0000
  I   I280      1.0  0.95007  0.22670  0.88633  1.0000
  I   I281      1.0  0.70161  0.29045  0.61646  1.0000
  I   I282      1.0  0.26344  0.78711  0.38814  1.0000
  I   I283      1.0  0.82558  0.44710  0.26012  1.0000
  I   I284      1.0  0.02645  0.54181  0.46307  1.0000
  I   I285      1.0  0.09501  0.43445  0.89658  1.0000
  I   I286      1.0  0.70836  0.98088  0.70917  1.0000
  I   I287      1.0  0.56413  0.09758  0.34135  1.0000
  I   I288      1.0  0.54551  0.12347  0.89723  1.0000
  I   I289      1.0  0.49256  0.80990  0.36418  1.0000
  I   I290      1.0  0.12733  0.84022  0.13564  1.0000
  I   I291      1.0  0.08072  0.08031  0.03334  1.0000
  I   I292      1.0  0.29636  0.99323  0.40016  1.0000
  I   I293      1.0  0.20178  0.24704  0.39898  1.0000
  I   I294      1.0  0.16997  0.27609  0.89999  1.0000
  I   I295      1.0  0.92732  0.82763  0.13793  1.0000
  I   I296      1.0  0.88421  0.06449  0.43499  1.0000
  I   I297      1.0  0.87369  0.89577  0.41715  1.0000
  I   I298      1.0  0.19327  0.78599  0.80332  1.0000
  I   I299      1.0  0.37050  0.69289  0.06828  1.0000
  I   I300      1.0  0.05563  0.73152  0.82497  1.0000
  I   I301      1.0  0.34507  0.15810  0.07758  1.0000
  I   I302      1.0  0.33459  0.22356  0.49400  1.0000
  I   I303      1.0  0.30085  0.11745  0.67136  1.0000
  I   I304      1.0  0.19794  0.51063  0.39953  1.0000
  I   I305      1.0  0.14749  0.64668  0.22711  1.0000
  I   I306      1.0  0.11149  0.57352  0.47404  1.0000
  I   I307      1.0  0.38866  0.68935  0.56641  1.0000
  I   I308      1.0  0.62917  0.77675  0.68088  1.0000
  I   I309      1.0  0.24995  0.57816  0.63287  1.0000
  I   I310      1.0  0.46253  0.89821  0.84206  1.0000
  I   I311      1.0  0.76425  0.79012  0.25086  1.0000
  I   I312      1.0  0.60972  0.92450  0.87115  1.0000
  I   I313      1.0  0.57004  0.47703  0.50392  1.0000
  I   I314      1.0  0.25763  0.36201  0.91618  1.0000
  I   I315      1.0  0.24529  0.46076  0.10036  1.0000
  I   I316      1.0  0.55236  0.65683  0.68180  1.0000
  I   I317      1.0  0.54924  0.45139  0.27418  1.0000
  I   I318      1.0  0.64348  0.48513  0.76918  1.0000
  I   I319      1.0  0.97016  0.40326  0.91664  1.0000
  I   I320      1.0  0.03183  0.51599  0.06778  1.0000
  I   I321      1.0  0.89513  0.41299  0.64513  1.0000
  I   I322      1.0  0.82313  0.95649  0.16405  1.0000
  I   I323      1.0  0.76833  0.62433  0.06691  1.0000
  I   I324      1.0  0.77181  0.66069  0.49489  1.0000
  I   I325      1.0  0.69864  0.10397  0.24089  1.0000
  I   I326      1.0  0.68673  0.32647  0.12168  1.0000
  I   I327      1.0  0.54096  0.37489  0.84293  1.0000
  I   I328      1.0  0.96925  0.17389  0.01009  1.0000
  I   I329      1.0  0.71516  0.30457  0.48688  1.0000
  I   I330      1.0  0.22381  0.83783  0.28238  1.0000
  I   I331      1.0  0.19565  0.44041  0.80462  1.0000
  I   I332      1.0  0.84067  0.40016  0.38374  1.0000
  I   I333      1.0  0.96022  0.53919  0.78778  1.0000
  I   I334      1.0  0.61179  0.11356  0.83387  1.0000
  I   I335      1.0  0.56145  0.01409  0.53710  1.0000
  I   I336      1.0  0.49087  0.09129  0.30328  1.0000
  I   I337      1.0  0.45034  0.88582  0.31385  1.0000
  I   I338      1.0  0.12448  0.88284  0.27789  1.0000
  I   I339      1.0  0.15340  0.04065  0.08643  1.0000
  I   I340      1.0  0.28254  0.99026  0.53772  1.0000
  I   I341      1.0  0.22881  0.29017  0.50807  1.0000
  I   I342      1.0  0.10417  0.28687  0.87517  1.0000
  I   I343      1.0  0.85243  0.82948  0.18727  1.0000
  I   I344      1.0  0.93769  0.98367  0.55327  1.0000
  I   I345      1.0  0.81474  0.89673  0.32699  1.0000
  I   I346      1.0  0.22013  0.82828  0.71635  1.0000
  I   I347      1.0  0.33602  0.65487  0.01388  1.0000
  I   I348      1.0  0.96805  0.77834  0.79324  1.0000
  I   I349      1.0  0.35801  0.08428  0.13314  1.0000
  I   I350      1.0  0.33254  0.28462  0.39834  1.0000
  I   I351      1.0  0.30573  0.15195  0.82766  1.0000
  I   I352      1.0  0.21737  0.45806  0.31847  1.0000
  I   I353      1.0  0.22299  0.63702  0.16449  1.0000
  I   I354      1.0  0.05170  0.64050  0.47187  1.0000
  I   I355      1.0  0.46098  0.65368  0.54931  1.0000
  I   I356      1.0  0.65139  0.76212  0.86880  1.0000
  I   I357      1.0  0.25668  0.65134  0.64800  1.0000
  I   I358      1.0  0.45143  0.82562  0.85815  1.0000
  I   I359      1.0  0.73792  0.87127  0.24842  1.0000
  I   I360      1.0  0.69443  0.90615  0.86424  1.0000
  I   I361      1.0  0.55341  0.41404  0.53020  1.0000
  I   I362      1.0  0.30129  0.32323  0.81885  1.0000
  I   I363      1.0  0.29486  0.41392  0.20085  1.0000
  I   I364      1.0  0.64002  0.62077  0.64665  1.0000
  I   I365      1.0  0.54687  0.52438  0.31175  1.0000
  I   I366      1.0  0.72476  0.43294  0.82202  1.0000
  I   I367      1.0  0.89355  0.41091  0.94083  1.0000
  I   I368      1.0  0.02452  0.47894  0.19259  1.0000
  I   I369      1.0  0.83270  0.39560  0.68970  1.0000
  I   I370      1.0  0.87669  0.92079  0.05417  1.0000
  I   I371      1.0  0.80771  0.54382  0.07142  1.0000
  I   I372      1.0  0.69815  0.64348  0.53488  1.0000
  I   I373      1.0  0.63604  0.16223  0.32925  1.0000
  I   I374      1.0  0.69234  0.24961  0.06516  1.0000
  I   I375      1.0  0.57597  0.41461  0.90744  1.0000
  I   I376      1.0  0.90173  0.25010  0.05707  1.0000
  I   I377      1.0  0.65663  0.34545  0.71442  1.0000
  I   I378      1.0  0.29684  0.78408  0.20150  1.0000
  I   I379      1.0  0.17721  0.52393  0.80916  1.0000
  I   I380      1.0  0.87327  0.35421  0.24173  1.0000
  I   I381      1.0  0.95345  0.59968  0.68522  1.0000
  I   I382      1.0  0.63442  0.03724  0.80552  1.0000
  I   I383      1.0  0.64884  0.94777  0.54567  1.0000
  I   I384      1.0  0.55524  0.01547  0.23227  1.0000
