data_image0
_chemical_formula_structural       Ti96I384
_chemical_formula_sum              "Ti96 I384"
_cell_length_a       55.8289
_cell_length_b       56.1126
_cell_length_c       27.1534
_cell_angle_alpha    88.7757
_cell_angle_beta     88.7757
_cell_angle_gamma    62.1586

_space_group_name_H-M_alt    "P 1"
_space_group_IT_number       1

loop_
  _space_group_symop_operation_xyz
  'x, y, z'

loop_
  _atom_site_type_symbol
  _atom_site_label
  _atom_site_symmetry_multiplicity
  _atom_site_fract_x
  _atom_site_fract_y
  _atom_site_fract_z
  _atom_site_occupancy
  Ti  Ti1       1.0  0.91259  0.60336  0.05766  1.0000
  Ti  Ti2       1.0  0.88226  0.99452  0.11219  1.0000
  Ti  Ti3       1.0  0.84435  0.67922  0.30590  1.0000
  Ti  Ti4       1.0  0.31288  0.13473  0.50970  1.0000
  Ti  Ti5       1.0  0.92264  0.24547  0.09054  1.0000
  Ti  Ti6       1.0  0.08917  0.23866  0.55743  1.0000
  Ti  Ti7       1.0  0.95071  0.90068  0.47768  1.0000
  Ti  Ti8       1.0  0.97282  0.05448  0.59525  1.0000
  Ti  Ti9       1.0  0.83935  0.93161  0.74810  1.0000
  Ti  Ti10      1.0  0.38014  0.91020  0.14994  1.0000
  Ti  Ti11      1.0  0.22245  0.57363  0.87273  1.0000
  Ti  Ti12      1.0  0.82815  0.77602  0.78375  1.0000
  Ti  Ti13      1.0  0.41031  0.32815  0.48638  1.0000
  Ti  Ti14      1.0  0.29933  0.26778  0.37184  1.0000
  Ti  Ti15      1.0  0.28358  0.05032  0.99811  1.0000
  Ti  Ti16      1.0  0.20237  0.69772  0.29077  1.0000
  Ti  Ti17      1.0  0.23233  0.69830  0.99772  1.0000
  Ti  Ti18      1.0  0.12189  0.39477  0.04046  1.0000
  Ti  Ti19      1.0  0.64433  0.67307  0.44221  1.0000
  Ti  Ti20      1.0  0.75628  0.78568  0.03264  1.0000
  Ti  Ti21      1.0  0.26750  0.47825  0.10238  1.0000
  Ti  Ti22      1.0  0.51980  0.02896  0.48219  1.0000
  Ti  Ti23      1.0  0.59317  0.96275  0.86558  1.0000
  Ti  Ti24      1.0  0.50839  0.88590  0.48477  1.0000
  Ti  Ti25      1.0  0.30313  0.20778  0.88499  1.0000
  Ti  Ti26      1.0  0.22563  0.32263  0.72890  1.0000
  Ti  Ti27      1.0  0.27454  0.49933  0.59326  1.0000
  Ti  Ti28      1.0  0.52632  0.59067  0.61530  1.0000
  Ti  Ti29      1.0  0.72853  0.40489  0.53450  1.0000
  Ti  Ti30      1.0  0.83822  0.45962  0.60621  1.0000
  Ti  Ti31      1.0  0.59839  0.50906  0.06070  1.0000
  Ti  Ti32      1.0  0.80772  0.19966  0.48008  1.0000
  Ti  Ti33      1.0  0.91532  0.40741  0.04545  1.0000
  Ti  Ti34      1.0  0.06429  0.73097  0.21162  1.0000
  Ti  Ti35      1.0  0.66966  0.57375  0.87126  1.0000
  Ti  Ti36      1.0  0.08649  0.51467  0.94052  1.0000
  Ti  Ti37      1.0  0.67005  0.27627  0.11767  1.0000
  Ti  Ti38      1.0  0.52744  0.35793  0.32285  1.0000
  Ti  Ti39      1.0  0.43512  0.57656  0.13274  1.0000
  Ti  Ti40      1.0  0.23131  0.99107  0.65982  1.0000
  Ti  Ti41      1.0  0.61169  0.33666  0.76554  1.0000
  Ti  Ti42      1.0  0.46039  0.76672  0.92404  1.0000
  Ti  Ti43      1.0  0.84769  0.13871  0.84740  1.0000
  Ti  Ti44      1.0  0.89271  0.46789  0.33116  1.0000
  Ti  Ti45      1.0  0.02418  0.46162  0.36105  1.0000
  Ti  Ti46      1.0  0.59184  0.13146  0.46952  1.0000
  Ti  Ti47      1.0  0.49614  0.10796  0.18013  1.0000
  Ti  Ti48      1.0  0.47738  0.31233  0.86145  1.0000
  Ti  Ti49      1.0  0.87548  0.61762  0.18692  1.0000
  Ti  Ti50      1.0  0.81169  0.00019  0.07229  1.0000
  Ti  Ti51      1.0  0.87806  0.06777  0.15263  1.0000
  Ti  Ti52      1.0  0.33236  0.08405  0.57861  1.0000
  Ti  Ti53      1.0  0.95114  0.16848  0.01690  1.0000
  Ti  Ti54      1.0  0.05043  0.21391  0.64829  1.0000
  Ti  Ti55      1.0  0.98669  0.90627  0.59164  1.0000
  Ti  Ti56      1.0  0.96766  0.02508  0.68082  1.0000
  Ti  Ti57      1.0  0.78029  0.00613  0.71257  1.0000
  Ti  Ti58      1.0  0.27587  0.81893  0.16080  1.0000
  Ti  Ti59      1.0  0.43552  0.89696  0.23623  1.0000
  Ti  Ti60      1.0  0.86836  0.76360  0.63216  1.0000
  Ti  Ti61      1.0  0.26084  0.09891  0.07622  1.0000
  Ti  Ti62      1.0  0.42834  0.27042  0.56135  1.0000
  Ti  Ti63      1.0  0.36043  0.22115  0.28691  1.0000
  Ti  Ti64      1.0  0.19700  0.31937  0.07597  1.0000
  Ti  Ti65      1.0  0.22071  0.68280  0.12931  1.0000
  Ti  Ti66      1.0  0.23017  0.79370  0.64741  1.0000
  Ti  Ti67      1.0  0.63050  0.71784  0.52955  1.0000
  Ti  Ti68      1.0  0.79937  0.81064  0.09519  1.0000
  Ti  Ti69      1.0  0.32010  0.42725  0.98429  1.0000
  Ti  Ti70      1.0  0.51802  0.95258  0.52680  1.0000
  Ti  Ti71      1.0  0.61421  0.95380  0.73523  1.0000
  Ti  Ti72      1.0  0.55066  0.03178  0.95350  1.0000
  Ti  Ti73      1.0  0.29060  0.50275  0.45617  1.0000
  Ti  Ti74      1.0  0.25440  0.23556  0.75228  1.0000
  Ti  Ti75      1.0  0.17334  0.36477  0.61813  1.0000
  Ti  Ti76      1.0  0.90439  0.45883  0.66200  1.0000
  Ti  Ti77      1.0  0.47973  0.54913  0.68070  1.0000
  Ti  Ti78      1.0  0.79085  0.40323  0.63659  1.0000
  Ti  Ti79      1.0  0.86385  0.46154  0.98680  1.0000
  Ti  Ti80      1.0  0.64138  0.50459  0.16407  1.0000
  Ti  Ti81      1.0  0.83487  0.19709  0.33577  1.0000
  Ti  Ti82      1.0  0.05664  0.68334  0.15107  1.0000
  Ti  Ti83      1.0  0.69442  0.57539  0.98693  1.0000
  Ti  Ti84      1.0  0.04651  0.59341  0.84694  1.0000
  Ti  Ti85      1.0  0.68596  0.30119  0.21614  1.0000
  Ti  Ti86      1.0  0.54324  0.29661  0.26193  1.0000
  Ti  Ti87      1.0  0.40420  0.64443  0.17157  1.0000
  Ti  Ti88      1.0  0.29628  0.93647  0.64530  1.0000
  Ti  Ti89      1.0  0.58378  0.33715  0.62847  1.0000
  Ti  Ti90      1.0  0.43759  0.70461  0.95973  1.0000
  Ti  Ti91      1.0  0.02855  0.52667  0.31379  1.0000
  Ti  Ti92      1.0  0.82362  0.19564  0.91555  1.0000
  Ti  Ti93      1.0  0.97259  0.42168  0.35664  1.0000
  Ti  Ti94      1.0  0.49501  0.34595  0.94612  1.0000
  Ti  Ti95      1.0  0.57934  0.07458  0.55883  1.0000
  Ti  Ti96      1.0  0.44663  0.13466  0.07309  1.0000
  I   I1        1.0  0.78327  0.02927  0.99675  1.0000
  I   I2        1.0  0.93479  0.96998  0.08944  1.0000
  I   I3        1.0  0.86401  0.59400  0.10993  1.0000
  I   I4        1.0  0.90074  0.20684  0.06584  1.0000
  I   I5        1.0  0.06417  0.16278  0.67408  1.0000
  I   I6        1.0  0.01183  0.25885  0.62066  1.0000
  I   I7        1.0  0.98754  0.98658  0.75533  1.0000
  I   I8        1.0  0.93566  0.09699  0.64135  1.0000
  I   I9        1.0  0.86120  0.93341  0.83221  1.0000
  I   I10       1.0  0.41399  0.86341  0.19612  1.0000
  I   I11       1.0  0.23202  0.58815  0.78494  1.0000
  I   I12       1.0  0.28957  0.76931  0.18494  1.0000
  I   I13       1.0  0.42340  0.27316  0.45729  1.0000
  I   I14       1.0  0.35446  0.20965  0.19367  1.0000
  I   I15       1.0  0.26157  0.01990  0.01153  1.0000
  I   I16       1.0  0.23887  0.69810  0.21340  1.0000
  I   I17       1.0  0.26928  0.74524  0.62840  1.0000
  I   I18       1.0  0.21807  0.27001  0.10372  1.0000
  I   I19       1.0  0.80983  0.83401  0.02390  1.0000
  I   I20       1.0  0.21377  0.50217  0.08535  1.0000
  I   I21       1.0  0.29856  0.42492  0.06807  1.0000
  I   I22       1.0  0.58114  0.98362  0.66921  1.0000
  I   I23       1.0  0.59752  0.00419  0.80417  1.0000
  I   I24       1.0  0.54809  0.90258  0.56312  1.0000
  I   I25       1.0  0.25201  0.21676  0.85088  1.0000
  I   I26       1.0  0.19826  0.31145  0.65408  1.0000
  I   I27       1.0  0.27085  0.54493  0.55921  1.0000
  I   I28       1.0  0.53552  0.54945  0.68887  1.0000
  I   I29       1.0  0.76477  0.37068  0.60271  1.0000
  I   I30       1.0  0.87890  0.42399  0.66937  1.0000
  I   I31       1.0  0.59439  0.54105  0.99029  1.0000
  I   I32       1.0  0.81758  0.16157  0.38121  1.0000
  I   I33       1.0  0.96208  0.38360  0.01350  1.0000
  I   I34       1.0  0.62692  0.62055  0.87958  1.0000
  I   I35       1.0  0.07035  0.62027  0.80982  1.0000
  I   I36       1.0  0.07355  0.65019  0.07234  1.0000
  I   I37       1.0  0.66309  0.26474  0.22336  1.0000
  I   I38       1.0  0.39123  0.62366  0.24487  1.0000
  I   I39       1.0  0.67450  0.31102  0.31555  1.0000
  I   I40       1.0  0.55881  0.37509  0.71902  1.0000
  I   I41       1.0  0.43188  0.66398  0.93560  1.0000
  I   I42       1.0  0.25690  0.93251  0.70909  1.0000
  I   I43       1.0  0.89491  0.10906  0.81110  1.0000
  I   I44       1.0  0.96096  0.39428  0.29874  1.0000
  I   I45       1.0  0.05746  0.42964  0.43346  1.0000
  I   I46       1.0  0.56669  0.15370  0.38499  1.0000
  I   I47       1.0  0.51173  0.06470  0.13136  1.0000
  I   I48       1.0  0.54276  0.30770  0.95606  1.0000
  I   I49       1.0  0.88559  0.62177  0.97177  1.0000
  I   I50       1.0  0.88905  0.94649  0.14205  1.0000
  I   I51       1.0  0.84663  0.11661  0.10532  1.0000
  I   I52       1.0  0.38023  0.04797  0.59775  1.0000
  I   I53       1.0  0.95403  0.20777  0.15150  1.0000
  I   I54       1.0  0.07177  0.20325  0.54866  1.0000
  I   I55       1.0  0.90600  0.92147  0.53360  1.0000
  I   I56       1.0  0.97459  0.06156  0.73230  1.0000
  I   I57       1.0  0.83802  0.98616  0.73213  1.0000
  I   I58       1.0  0.47085  0.89909  0.17614  1.0000
  I   I59       1.0  0.36063  0.92184  0.24949  1.0000
  I   I60       1.0  0.81496  0.81832  0.83167  1.0000
  I   I61       1.0  0.45501  0.22405  0.59836  1.0000
  I   I62       1.0  0.42202  0.29392  0.64860  1.0000
  I   I63       1.0  0.33243  0.26151  0.44461  1.0000
  I   I64       1.0  0.17318  0.68188  0.33799  1.0000
  I   I65       1.0  0.20908  0.66290  0.04809  1.0000
  I   I66       1.0  0.23045  0.82716  0.58061  1.0000
  I   I67       1.0  0.59011  0.76636  0.55315  1.0000
  I   I68       1.0  0.74594  0.74622  0.04668  1.0000
  I   I69       1.0  0.28115  0.43365  0.92809  1.0000
  I   I70       1.0  0.48465  0.00331  0.48125  1.0000
  I   I71       1.0  0.64871  0.93571  0.84202  1.0000
  I   I72       1.0  0.56633  0.06374  0.00291  1.0000
  I   I73       1.0  0.22495  0.52149  0.63828  1.0000
  I   I74       1.0  0.27010  0.27674  0.69122  1.0000
  I   I75       1.0  0.20212  0.34914  0.53062  1.0000
  I   I76       1.0  0.50499  0.64024  0.58417  1.0000
  I   I77       1.0  0.43427  0.59157  0.70453  1.0000
  I   I78       1.0  0.80231  0.44936  0.67057  1.0000
  I   I79       1.0  0.84267  0.44866  0.91022  1.0000
  I   I80       1.0  0.68922  0.50271  0.17366  1.0000
  I   I81       1.0  0.79788  0.16205  0.51409  1.0000
  I   I82       1.0  0.03293  0.73060  0.28845  1.0000
  I   I83       1.0  0.64608  0.54310  0.88319  1.0000
  I   I84       1.0  0.05170  0.56183  0.77492  1.0000
  I   I85       1.0  0.73980  0.27412  0.20215  1.0000
  I   I86       1.0  0.50648  0.28041  0.27150  1.0000
  I   I87       1.0  0.40210  0.55638  0.15979  1.0000
  I   I88       1.0  0.18494  0.99661  0.69734  1.0000
  I   I89       1.0  0.60259  0.29473  0.76823  1.0000
  I   I90       1.0  0.43642  0.80123  0.85466  1.0000
  I   I91       1.0  0.04079  0.53617  0.22658  1.0000
  I   I92       1.0  0.87756  0.15570  0.91187  1.0000
  I   I93       1.0  0.98082  0.46552  0.42340  1.0000
  I   I94       1.0  0.50411  0.38739  0.92295  1.0000
  I   I95       1.0  0.62292  0.03457  0.58442  1.0000
  I   I96       1.0  0.44232  0.10414  0.00458  1.0000
  I   I97       1.0  0.86026  0.70597  0.37458  1.0000
  I   I98       1.0  0.94310  0.62394  0.03601  1.0000
  I   I99       1.0  0.89522  0.01685  0.19167  1.0000
  I   I100      1.0  0.33739  0.13193  0.60213  1.0000
  I   I101      1.0  0.30090  0.11888  0.43066  1.0000
  I   I102      1.0  0.95578  0.22460  0.00554  1.0000
  I   I103      1.0  0.96633  0.87355  0.61775  1.0000
  I   I104      1.0  0.92842  0.93354  0.40103  1.0000
  I   I105      1.0  0.73396  0.00992  0.68990  1.0000
  I   I106      1.0  0.79022  0.76724  0.81772  1.0000
  I   I107      1.0  0.39871  0.94655  0.16689  1.0000
  I   I108      1.0  0.86479  0.78854  0.71858  1.0000
  I   I109      1.0  0.29343  0.08241  0.15393  1.0000
  I   I110      1.0  0.37880  0.27686  0.55022  1.0000
  I   I111      1.0  0.26434  0.31967  0.37444  1.0000
  I   I112      1.0  0.15883  0.40802  0.02256  1.0000
  I   I113      1.0  0.24540  0.63198  0.16371  1.0000
  I   I114      1.0  0.27834  0.65727  0.96510  1.0000
  I   I115      1.0  0.59140  0.70996  0.48260  1.0000
  I   I116      1.0  0.65265  0.71252  0.61639  1.0000
  I   I117      1.0  0.74253  0.84197  0.06476  1.0000
  I   I118      1.0  0.55360  0.97454  0.49840  1.0000
  I   I119      1.0  0.50915  0.05710  0.40262  1.0000
  I   I120      1.0  0.60502  0.99150  0.94775  1.0000
  I   I121      1.0  0.29873  0.48642  0.67031  1.0000
  I   I122      1.0  0.28853  0.25108  0.80640  1.0000
  I   I123      1.0  0.22259  0.36286  0.66272  1.0000
  I   I124      1.0  0.84209  0.49631  0.65906  1.0000
  I   I125      1.0  0.46755  0.52441  0.61087  1.0000
  I   I126      1.0  0.75120  0.44149  0.55717  1.0000
  I   I127      1.0  0.89867  0.45954  0.06350  1.0000
  I   I128      1.0  0.62602  0.46876  0.18217  1.0000
  I   I129      1.0  0.78642  0.23387  0.39255  1.0000
  I   I130      1.0  0.10321  0.47849  0.87311  1.0000
  I   I131      1.0  0.07125  0.72104  0.11557  1.0000
  I   I132      1.0  0.67630  0.61743  0.04504  1.0000
  I   I133      1.0  0.45533  0.61478  0.15269  1.0000
  I   I134      1.0  0.56439  0.28816  0.17414  1.0000
  I   I135      1.0  0.49478  0.41323  0.31292  1.0000
  I   I136      1.0  0.50790  0.75872  0.89628  1.0000
  I   I137      1.0  0.31114  0.89136  0.59540  1.0000
  I   I138      1.0  0.61266  0.37746  0.80965  1.0000
  I   I139      1.0  0.02106  0.50220  0.41218  1.0000
  I   I140      1.0  0.84064  0.23303  0.88711  1.0000
  I   I141      1.0  0.93679  0.47879  0.31255  1.0000
  I   I142      1.0  0.44862  0.31360  0.78414  1.0000
  I   I143      1.0  0.54788  0.12696  0.51951  1.0000
  I   I144      1.0  0.39991  0.17673  0.05564  1.0000
  I   I145      1.0  0.82494  0.64808  0.22569  1.0000
  I   I146      1.0  0.86325  0.98457  0.01622  1.0000
  I   I147      1.0  0.82031  0.72101  0.24849  1.0000
  I   I148      1.0  0.32560  0.05447  0.51227  1.0000
  I   I149      1.0  0.95526  0.16831  0.92065  1.0000
  I   I150      1.0  0.13503  0.22756  0.52212  1.0000
  I   I151      1.0  0.00431  0.87568  0.50000  1.0000
  I   I152      1.0  0.97803  0.05010  0.50177  1.0000
  I   I153      1.0  0.81086  0.95799  0.66059  1.0000
  I   I154      1.0  0.27618  0.84140  0.23667  1.0000
  I   I155      1.0  0.18747  0.59932  0.94358  1.0000
  I   I156      1.0  0.82734  0.75794  0.68296  1.0000
  I   I157      1.0  0.23713  0.14985  0.09169  1.0000
  I   I158      1.0  0.30353  0.22600  0.30999  1.0000
  I   I159      1.0  0.30916  0.08496  0.02036  1.0000
  I   I160      1.0  0.08940  0.41403  0.96624  1.0000
  I   I161      1.0  0.26435  0.68367  0.08269  1.0000
  I   I162      1.0  0.09593  0.42739  0.10840  1.0000
  I   I163      1.0  0.65211  0.65650  0.54326  1.0000
  I   I164      1.0  0.79184  0.76853  0.96483  1.0000
  I   I165      1.0  0.26946  0.52255  0.13740  1.0000
  I   I166      1.0  0.51270  0.97200  0.61403  1.0000
  I   I167      1.0  0.57762  0.94664  0.79101  1.0000
  I   I168      1.0  0.47399  0.88188  0.42488  1.0000
  I   I169      1.0  0.31589  0.24047  0.93705  1.0000
  I   I170      1.0  0.21631  0.28607  0.79080  1.0000
  I   I171      1.0  0.31698  0.46909  0.53992  1.0000
  I   I172      1.0  0.95466  0.41861  0.66041  1.0000
  I   I173      1.0  0.74735  0.40457  0.44516  1.0000
  I   I174      1.0  0.82683  0.41092  0.56375  1.0000
  I   I175      1.0  0.59801  0.55715  0.12066  1.0000
  I   I176      1.0  0.82290  0.20699  0.24138  1.0000
  I   I177      1.0  0.89249  0.38674  0.98366  1.0000
  I   I178      1.0  0.10559  0.67518  0.21235  1.0000
  I   I179      1.0  0.68989  0.61312  0.90898  1.0000
  I   I180      1.0  0.13765  0.48781  0.96723  1.0000
  I   I181      1.0  0.63835  0.32377  0.16725  1.0000
  I   I182      1.0  0.51927  0.31944  0.36894  1.0000
  I   I183      1.0  0.45678  0.54150  0.06191  1.0000
  I   I184      1.0  0.21540  0.03763  0.61657  1.0000
  I   I185      1.0  0.66320  0.30570  0.80280  1.0000
  I   I186      1.0  0.46328  0.71804  0.88798  1.0000
  I   I187      1.0  0.77423  0.23292  0.89862  1.0000
  I   I188      1.0  0.87818  0.48273  0.23901  1.0000
  I   I189      1.0  0.01486  0.42267  0.30560  1.0000
  I   I190      1.0  0.63520  0.11322  0.41314  1.0000
  I   I191      1.0  0.49591  0.08671  0.26392  1.0000
  I   I192      1.0  0.45709  0.32465  0.96544  1.0000
  I   I193      1.0  0.93386  0.55178  0.02661  1.0000
  I   I194      1.0  0.82613  0.02753  0.14569  1.0000
  I   I195      1.0  0.89560  0.62939  0.31892  1.0000
  I   I196      1.0  0.28311  0.18394  0.49341  1.0000
  I   I197      1.0  0.87670  0.27749  0.12520  1.0000
  I   I198      1.0  0.05901  0.26709  0.48388  1.0000
  I   I199      1.0  0.95566  0.86147  0.42046  1.0000
  I   I200      1.0  0.91902  0.04201  0.71184  1.0000
  I   I201      1.0  0.88166  0.90626  0.69742  1.0000
  I   I202      1.0  0.32991  0.92547  0.12927  1.0000
  I   I203      1.0  0.23478  0.52444  0.83864  1.0000
  I   I204      1.0  0.85456  0.76277  0.54501  1.0000
  I   I205      1.0  0.37017  0.34278  0.43387  1.0000
  I   I206      1.0  0.26233  0.25879  0.42009  1.0000
  I   I207      1.0  0.23435  0.10361  0.98884  1.0000
  I   I208      1.0  0.24738  0.66824  0.33758  1.0000
  I   I209      1.0  0.24539  0.73505  0.98800  1.0000
  I   I210      1.0  0.16310  0.34004  0.99713  1.0000
  I   I211      1.0  0.63023  0.69824  0.35595  1.0000
  I   I212      1.0  0.71908  0.81300  0.96956  1.0000
  I   I213      1.0  0.34167  0.44980  0.91805  1.0000
  I   I214      1.0  0.56359  0.03353  0.49402  1.0000
  I   I215      1.0  0.60816  0.92948  0.94747  1.0000
  I   I216      1.0  0.55683  0.84554  0.48106  1.0000
  I   I217      1.0  0.30584  0.17682  0.95706  1.0000
  I   I218      1.0  0.24715  0.33768  0.80099  1.0000
  I   I219      1.0  0.32525  0.51846  0.44279  1.0000
  I   I220      1.0  0.54838  0.60806  0.68141  1.0000
  I   I221      1.0  0.71228  0.37035  0.51098  1.0000
  I   I222      1.0  0.80655  0.49108  0.53621  1.0000
  I   I223      1.0  0.55434  0.53364  0.10824  1.0000
  I   I224      1.0  0.81194  0.22469  0.55902  1.0000
  I   I225      1.0  0.91667  0.38585  0.13258  1.0000
  I   I226      1.0  0.02143  0.77911  0.17625  1.0000
  I   I227      1.0  0.67288  0.56715  0.77608  1.0000
  I   I228      1.0  0.09693  0.55512  0.89147  1.0000
  I   I229      1.0  0.71394  0.22668  0.11241  1.0000
  I   I230      1.0  0.54238  0.37009  0.40679  1.0000
  I   I231      1.0  0.40444  0.68856  0.21018  1.0000
  I   I232      1.0  0.24223  0.95875  0.57926  1.0000
  I   I233      1.0  0.56700  0.36646  0.55044  1.0000
  I   I234      1.0  0.41345  0.71360  0.04954  1.0000
  I   I235      1.0  0.81695  0.12162  0.79851  1.0000
  I   I236      1.0  0.87334  0.43582  0.34211  1.0000
  I   I237      1.0  0.98995  0.51219  0.29118  1.0000
  I   I238      1.0  0.59419  0.17171  0.50284  1.0000
  I   I239      1.0  0.54510  0.09978  0.18329  1.0000
  I   I240      1.0  0.48345  0.26552  0.91042  1.0000
  I   I241      1.0  0.87151  0.65811  0.10983  1.0000
  I   I242      1.0  0.88717  0.03796  0.06700  1.0000
  I   I243      1.0  0.80096  0.67898  0.34082  1.0000
  I   I244      1.0  0.37071  0.10614  0.48658  1.0000
  I   I245      1.0  0.00340  0.14542  0.04610  1.0000
  I   I246      1.0  0.06526  0.28561  0.60897  1.0000
  I   I247      1.0  0.95525  0.94619  0.51761  1.0000
  I   I248      1.0  0.01544  0.00608  0.63292  1.0000
  I   I249      1.0  0.81105  0.90414  0.76978  1.0000
  I   I250      1.0  0.41270  0.89345  0.07390  1.0000
  I   I251      1.0  0.26040  0.56589  0.93435  1.0000
  I   I252      1.0  0.86791  0.73408  0.82540  1.0000
  I   I253      1.0  0.43272  0.35406  0.43979  1.0000
  I   I254      1.0  0.40815  0.21885  0.26183  1.0000
  I   I255      1.0  0.23784  0.06792  0.11951  1.0000
  I   I256      1.0  0.17535  0.74769  0.33282  1.0000
  I   I257      1.0  0.19840  0.71483  0.92012  1.0000
  I   I258      1.0  0.20385  0.34955  0.14395  1.0000
  I   I259      1.0  0.69790  0.64480  0.43047  1.0000
  I   I260      1.0  0.84677  0.76933  0.08834  1.0000
  I   I261      1.0  0.27608  0.46373  0.19362  1.0000
  I   I262      1.0  0.48835  0.05663  0.55742  1.0000
  I   I263      1.0  0.54218  0.99053  0.90358  1.0000
  I   I264      1.0  0.49860  0.87166  0.56735  1.0000
  I   I265      1.0  0.33675  0.16887  0.82797  1.0000
  I   I266      1.0  0.17452  0.36974  0.74487  1.0000
  I   I267      1.0  0.25753  0.48095  0.50959  1.0000
  I   I268      1.0  0.48794  0.57306  0.59293  1.0000
  I   I269      1.0  0.67969  0.44153  0.56653  1.0000
  I   I270      1.0  0.88119  0.45438  0.55539  1.0000
  I   I271      1.0  0.59205  0.46754  0.05799  1.0000
  I   I272      1.0  0.85867  0.17554  0.46938  1.0000
  I   I273      1.0  0.90927  0.44258  0.93413  1.0000
  I   I274      1.0  0.08373  0.76214  0.24348  1.0000
  I   I275      1.0  0.71680  0.53389  0.91451  1.0000
  I   I276      1.0  0.06643  0.49731  0.01092  1.0000
  I   I277      1.0  0.64467  0.26505  0.05399  1.0000
  I   I278      1.0  0.50179  0.34987  0.24396  1.0000
  I   I279      1.0  0.39592  0.62092  0.08676  1.0000
  I   I280      1.0  0.32098  0.94385  0.56498  1.0000
  I   I281      1.0  0.53599  0.33935  0.62174  1.0000
  I   I282      1.0  0.44653  0.80287  0.98772  1.0000
  I   I283      1.0  0.82459  0.18462  0.78891  1.0000
  I   I284      1.0  0.85373  0.51473  0.37547  1.0000
  I   I285      1.0  0.06619  0.45009  0.29764  1.0000
  I   I286      1.0  0.59914  0.10701  0.59437  1.0000
  I   I287      1.0  0.47493  0.16200  0.14245  1.0000
  I   I288      1.0  0.52631  0.29603  0.82766  1.0000
  I   I289      1.0  0.92894  0.59164  0.14842  1.0000
  I   I290      1.0  0.81604  0.95248  0.06629  1.0000
  I   I291      1.0  0.92323  0.06422  0.15291  1.0000
  I   I292      1.0  0.28053  0.12484  0.56835  1.0000
  I   I293      1.0  0.92659  0.13948  0.02682  1.0000
  I   I294      1.0  0.04418  0.23033  0.74102  1.0000
  I   I295      1.0  0.03661  0.88348  0.62920  1.0000
  I   I296      1.0  0.95109  0.01658  0.57879  1.0000
  I   I297      1.0  0.77455  0.05606  0.69514  1.0000
  I   I298      1.0  0.22305  0.83746  0.14465  1.0000
  I   I299      1.0  0.43891  0.93304  0.29037  1.0000
  I   I300      1.0  0.90876  0.71601  0.65953  1.0000
  I   I301      1.0  0.29984  0.03521  0.91027  1.0000
  I   I302      1.0  0.37949  0.35933  0.56475  1.0000
  I   I303      1.0  0.33147  0.27856  0.29542  1.0000
  I   I304      1.0  0.14122  0.35484  0.11570  1.0000
  I   I305      1.0  0.18937  0.73458  0.08904  1.0000
  I   I306      1.0  0.24084  0.80630  0.73023  1.0000
  I   I307      1.0  0.63112  0.63416  0.42042  1.0000
  I   I308      1.0  0.77112  0.78053  0.13131  1.0000
  I   I309      1.0  0.35448  0.37606  0.96124  1.0000
  I   I310      1.0  0.47967  0.93735  0.52417  1.0000
  I   I311      1.0  0.64646  0.97630  0.71051  1.0000
  I   I312      1.0  0.51289  0.03283  0.01338  1.0000
  I   I313      1.0  0.24779  0.53764  0.40705  1.0000
  I   I314      1.0  0.21763  0.23381  0.70167  1.0000
  I   I315      1.0  0.15306  0.41716  0.62291  1.0000
  I   I316      1.0  0.89517  0.47200  0.75719  1.0000
  I   I317      1.0  0.48909  0.51706  0.75888  1.0000
  I   I318      1.0  0.83368  0.35874  0.66455  1.0000
  I   I319      1.0  0.85250  0.44072  0.06925  1.0000
  I   I320      1.0  0.62438  0.52614  0.25218  1.0000
  I   I321      1.0  0.83957  0.24043  0.33648  1.0000
  I   I322      1.0  0.05002  0.65517  0.22144  1.0000
  I   I323      1.0  0.74585  0.55427  0.01851  1.0000
  I   I324      1.0  0.99511  0.63030  0.85459  1.0000
  I   I325      1.0  0.69056  0.34403  0.19778  1.0000
  I   I326      1.0  0.57749  0.34771  0.27620  1.0000
  I   I327      1.0  0.35198  0.68122  0.13788  1.0000
  I   I328      1.0  0.32982  0.92914  0.71655  1.0000
  I   I329      1.0  0.62917  0.33855  0.66777  1.0000
  I   I330      1.0  0.46187  0.73516  0.00224  1.0000
  I   I331      1.0  0.07246  0.52736  0.36539  1.0000
  I   I332      1.0  0.80558  0.15922  0.92696  1.0000
  I   I333      1.0  0.00330  0.38677  0.42604  1.0000
  I   I334      1.0  0.46127  0.38518  0.00653  1.0000
  I   I335      1.0  0.60702  0.07535  0.45986  1.0000
  I   I336      1.0  0.43667  0.12594  0.16672  1.0000
  I   I337      1.0  0.87625  0.57709  0.23596  1.0000
  I   I338      1.0  0.75964  0.01591  0.10356  1.0000
  I   I339      1.0  0.85194  0.09404  0.23102  1.0000
  I   I340      1.0  0.31168  0.08039  0.66071  1.0000
  I   I341      1.0  0.94633  0.27618  0.09823  1.0000
  I   I342      1.0  0.09844  0.21203  0.66586  1.0000
  I   I343      1.0  0.95768  0.93329  0.67280  1.0000
  I   I344      1.0  0.01730  0.06578  0.59208  1.0000
  I   I345      1.0  0.77485  0.00202  0.81296  1.0000
  I   I346      1.0  0.29585  0.83890  0.09329  1.0000
  I   I347      1.0  0.47104  0.85422  0.28373  1.0000
  I   I348      1.0  0.90137  0.78296  0.59584  1.0000
  I   I349      1.0  0.32030  0.01546  0.06439  1.0000
  I   I350      1.0  0.46181  0.29785  0.53551  1.0000
  I   I351      1.0  0.37972  0.18698  0.35788  1.0000
  I   I352      1.0  0.24083  0.31235  0.03654  1.0000
  I   I353      1.0  0.17591  0.69390  0.19943  1.0000
  I   I354      1.0  0.18603  0.79101  0.64613  1.0000
  I   I355      1.0  0.66689  0.72439  0.48684  1.0000
  I   I356      1.0  0.79769  0.83288  0.17707  1.0000
  I   I357      1.0  0.28406  0.48453  0.00360  1.0000
  I   I358      1.0  0.51717  0.92816  0.42709  1.0000
  I   I359      1.0  0.63139  0.90974  0.68413  1.0000
  I   I360      1.0  0.51438  0.07108  0.89640  1.0000
  I   I361      1.0  0.30685  0.46658  0.39136  1.0000
  I   I362      1.0  0.29376  0.19852  0.69464  1.0000
  I   I363      1.0  0.12887  0.36131  0.60703  1.0000
  I   I364      1.0  0.91552  0.49721  0.64257  1.0000
  I   I365      1.0  0.56595  0.56832  0.55365  1.0000
  I   I366      1.0  0.75801  0.40751  0.71018  1.0000
  I   I367      1.0  0.83726  0.51179  0.98363  1.0000
  I   I368      1.0  0.65328  0.49407  0.05703  1.0000
  I   I369      1.0  0.88510  0.16066  0.32943  1.0000
  I   I370      1.0  0.00590  0.70969  0.12742  1.0000
  I   I371      1.0  0.67431  0.55040  0.03774  1.0000
  I   I372      1.0  0.03562  0.55678  0.91431  1.0000
  I   I373      1.0  0.69290  0.30240  0.07100  1.0000
  I   I374      1.0  0.58321  0.25891  0.31775  1.0000
  I   I375      1.0  0.47125  0.55445  0.20810  1.0000
  I   I376      1.0  0.27454  0.99314  0.68793  1.0000
  I   I377      1.0  0.61558  0.29323  0.58793  1.0000
  I   I378      1.0  0.39303  0.74023  0.90972  1.0000
  I   I379      1.0  0.00108  0.57752  0.31978  1.0000
  I   I380      1.0  0.82979  0.21205  0.00093  1.0000
  I   I381      1.0  0.92865  0.43266  0.41099  1.0000
  I   I382      1.0  0.45823  0.36732  0.86648  1.0000
  I   I383      1.0  0.55305  0.06754  0.63434  1.0000
  I   I384      1.0  0.48163  0.14010  0.01119  1.0000
