data_image0
_chemical_formula_structural       Ti96I384
_chemical_formula_sum              "Ti96 I384"
_cell_length_a       63.0265
_cell_length_b       62.8146
_cell_length_c       30.7016
_cell_angle_alpha    88.7757
_cell_angle_beta     88.7757
_cell_angle_gamma    62.1586

_space_group_name_H-M_alt    "P 1"
_space_group_IT_number       1

loop_
  _space_group_symop_operation_xyz
  'x, y, z'

loop_
  _atom_site_type_symbol
  _atom_site_label
  _atom_site_symmetry_multiplicity
  _atom_site_fract_x
  _atom_site_fract_y
  _atom_site_fract_z
  _atom_site_occupancy
  Ti  Ti1       1.0  0.58445  0.88548  0.58365  1.0000
  Ti  Ti2       1.0  0.51464  0.11061  0.31783  1.0000
  Ti  Ti3       1.0  0.02704  0.44224  0.03876  1.0000
  Ti  Ti4       1.0  0.58936  0.39492  0.95912  1.0000
  Ti  Ti5       1.0  0.19716  0.85334  0.97970  1.0000
  Ti  Ti6       1.0  0.30144  0.20123  0.52923  1.0000
  Ti  Ti7       1.0  0.07934  0.84410  0.79590  1.0000
  Ti  Ti8       1.0  0.28577  0.51669  0.17155  1.0000
  Ti  Ti9       1.0  0.30291  0.90050  0.92806  1.0000
  Ti  Ti10      1.0  0.85819  0.76038  0.05796  1.0000
  Ti  Ti11      1.0  0.33046  0.53714  0.89071  1.0000
  Ti  Ti12      1.0  0.28168  0.62098  0.53727  1.0000
  Ti  Ti13      1.0  0.23831  0.41360  0.28739  1.0000
  Ti  Ti14      1.0  0.12870  0.96947  0.77994  1.0000
  Ti  Ti15      1.0  0.39841  0.94375  0.11761  1.0000
  Ti  Ti16      1.0  0.81351  0.71466  0.71165  1.0000
  Ti  Ti17      1.0  0.21942  0.31207  0.22163  1.0000
  Ti  Ti18      1.0  0.88108  0.60056  0.66865  1.0000
  Ti  Ti19      1.0  0.83965  0.90140  0.53483  1.0000
  Ti  Ti20      1.0  0.20869  0.05610  0.41238  1.0000
  Ti  Ti21      1.0  0.83540  0.20556  0.29949  1.0000
  Ti  Ti22      1.0  0.59324  0.58079  0.05498  1.0000
  Ti  Ti23      1.0  0.74630  0.87782  0.89044  1.0000
  Ti  Ti24      1.0  0.26627  0.73082  0.65140  1.0000
  Ti  Ti25      1.0  0.13724  0.36990  0.67743  1.0000
  Ti  Ti26      1.0  0.08023  0.11667  0.21659  1.0000
  Ti  Ti27      1.0  0.12160  0.68911  0.87870  1.0000
  Ti  Ti28      1.0  0.59975  0.50486  0.39281  1.0000
  Ti  Ti29      1.0  0.04431  0.96344  0.10560  1.0000
  Ti  Ti30      1.0  0.87337  0.46941  0.24212  1.0000
  Ti  Ti31      1.0  0.75097  0.40309  0.63240  1.0000
  Ti  Ti32      1.0  0.69973  0.03520  0.13781  1.0000
  Ti  Ti33      1.0  0.35781  0.86576  0.42639  1.0000
  Ti  Ti34      1.0  0.67369  0.65635  0.87277  1.0000
  Ti  Ti35      1.0  0.87678  0.42872  0.84132  1.0000
  Ti  Ti36      1.0  0.02697  0.52391  0.46496  1.0000
  Ti  Ti37      1.0  0.04549  0.26595  0.48332  1.0000
  Ti  Ti38      1.0  0.39829  0.38666  0.64330  1.0000
  Ti  Ti39      1.0  0.52895  0.30695  0.15020  1.0000
  Ti  Ti40      1.0  0.67319  0.74379  0.28417  1.0000
  Ti  Ti41      1.0  0.52574  0.71734  0.40719  1.0000
  Ti  Ti42      1.0  0.70543  0.01790  0.75446  1.0000
  Ti  Ti43      1.0  0.40296  0.12084  0.03674  1.0000
  Ti  Ti44      1.0  0.85617  0.57489  0.07128  1.0000
  Ti  Ti45      1.0  0.39415  0.70364  0.88645  1.0000
  Ti  Ti46      1.0  0.15229  0.32034  0.94896  1.0000
  Ti  Ti47      1.0  0.99489  0.18328  0.89202  1.0000
  Ti  Ti48      1.0  0.41854  0.55778  0.57587  1.0000
  Ti  Ti49      1.0  0.60475  0.92485  0.48107  1.0000
  Ti  Ti50      1.0  0.44618  0.04096  0.56558  1.0000
  Ti  Ti51      1.0  0.52739  0.16299  0.25453  1.0000
  Ti  Ti52      1.0  0.64485  0.37860  0.92109  1.0000
  Ti  Ti53      1.0  0.23868  0.70771  0.06122  1.0000
  Ti  Ti54      1.0  0.30413  0.13505  0.49550  1.0000
  Ti  Ti55      1.0  0.04823  0.84103  0.90323  1.0000
  Ti  Ti56      1.0  0.31874  0.55455  0.14241  1.0000
  Ti  Ti57      1.0  0.30162  0.92040  0.80049  1.0000
  Ti  Ti58      1.0  0.43463  0.05074  0.04275  1.0000
  Ti  Ti59      1.0  0.87429  0.72773  0.15910  1.0000
  Ti  Ti60      1.0  0.29407  0.55722  0.56035  1.0000
  Ti  Ti61      1.0  0.43566  0.91494  0.18845  1.0000
  Ti  Ti62      1.0  0.30881  0.34926  0.28186  1.0000
  Ti  Ti63      1.0  0.12634  0.90573  0.73460  1.0000
  Ti  Ti64      1.0  0.89300  0.63391  0.56225  1.0000
  Ti  Ti65      1.0  0.00401  0.58681  0.93770  1.0000
  Ti  Ti66      1.0  0.42155  0.40091  0.39665  1.0000
  Ti  Ti67      1.0  0.90511  0.89427  0.44933  1.0000
  Ti  Ti68      1.0  0.23131  0.05332  0.66042  1.0000
  Ti  Ti69      1.0  0.86258  0.22197  0.18344  1.0000
  Ti  Ti70      1.0  0.64474  0.59302  0.08234  1.0000
  Ti  Ti71      1.0  0.73703  0.92299  0.99242  1.0000
  Ti  Ti72      1.0  0.83701  0.00453  0.05886  1.0000
  Ti  Ti73      1.0  0.10814  0.62600  0.89461  1.0000
  Ti  Ti74      1.0  0.16791  0.41013  0.63936  1.0000
  Ti  Ti75      1.0  0.04421  0.14032  0.30152  1.0000
  Ti  Ti76      1.0  0.93149  0.43138  0.18493  1.0000
  Ti  Ti77      1.0  0.55209  0.49165  0.33241  1.0000
  Ti  Ti78      1.0  0.09838  0.95809  0.15776  1.0000
  Ti  Ti79      1.0  0.30029  0.91581  0.45365  1.0000
  Ti  Ti80      1.0  0.78474  0.42399  0.59580  1.0000
  Ti  Ti81      1.0  0.67972  0.08177  0.10269  1.0000
  Ti  Ti82      1.0  0.63257  0.72458  0.80959  1.0000
  Ti  Ti83      1.0  0.86452  0.49378  0.83286  1.0000
  Ti  Ti84      1.0  0.96139  0.53211  0.41269  1.0000
  Ti  Ti85      1.0  0.08469  0.29021  0.51745  1.0000
  Ti  Ti86      1.0  0.41170  0.38716  0.52312  1.0000
  Ti  Ti87      1.0  0.48811  0.32716  0.21836  1.0000
  Ti  Ti88      1.0  0.68975  0.77496  0.41126  1.0000
  Ti  Ti89      1.0  0.49808  0.73889  0.52431  1.0000
  Ti  Ti90      1.0  0.75463  0.01649  0.83642  1.0000
  Ti  Ti91      1.0  0.34863  0.76336  0.82484  1.0000
  Ti  Ti92      1.0  0.86366  0.15811  0.57394  1.0000
  Ti  Ti93      1.0  0.79803  0.61147  0.05512  1.0000
  Ti  Ti94      1.0  0.47461  0.54202  0.54500  1.0000
  Ti  Ti95      1.0  0.14214  0.26389  0.99353  1.0000
  Ti  Ti96      1.0  0.01765  0.13436  0.95156  1.0000
  I   I1        1.0  0.04125  0.16790  0.92431  1.0000
  I   I2        1.0  0.56943  0.14298  0.21381  1.0000
  I   I3        1.0  0.54680  0.91744  0.54700  1.0000
  I   I4        1.0  0.22529  0.68368  0.00997  1.0000
  I   I5        1.0  0.31469  0.22083  0.46112  1.0000
  I   I6        1.0  0.33360  0.15653  0.47617  1.0000
  I   I7        1.0  0.31091  0.56489  0.05996  1.0000
  I   I8        1.0  0.26363  0.56520  0.17653  1.0000
  I   I9        1.0  0.30575  0.88578  0.74271  1.0000
  I   I10       1.0  0.90445  0.73364  0.08514  1.0000
  I   I11       1.0  0.31525  0.52618  0.81655  1.0000
  I   I12       1.0  0.22669  0.81630  0.93579  1.0000
  I   I13       1.0  0.28313  0.39693  0.32224  1.0000
  I   I14       1.0  0.16364  0.91094  0.69853  1.0000
  I   I15       1.0  0.40634  0.96276  0.04852  1.0000
  I   I16       1.0  0.78450  0.74441  0.77087  1.0000
  I   I17       1.0  0.45660  0.40955  0.37595  1.0000
  I   I18       1.0  0.91854  0.65484  0.54022  1.0000
  I   I19       1.0  0.23540  0.07688  0.40886  1.0000
  I   I20       1.0  0.30217  0.53617  0.95653  1.0000
  I   I21       1.0  0.88509  0.20803  0.26481  1.0000
  I   I22       1.0  0.77709  0.91871  0.03516  1.0000
  I   I23       1.0  0.72796  0.88387  0.98030  1.0000
  I   I24       1.0  0.63907  0.57555  0.00245  1.0000
  I   I25       1.0  0.17757  0.43148  0.70753  1.0000
  I   I26       1.0  0.10171  0.10927  0.29284  1.0000
  I   I27       1.0  0.15437  0.69542  0.92858  1.0000
  I   I28       1.0  0.54315  0.45502  0.31967  1.0000
  I   I29       1.0  0.05505  0.99690  0.14167  1.0000
  I   I30       1.0  0.94060  0.42735  0.10577  1.0000
  I   I31       1.0  0.77607  0.46285  0.55203  1.0000
  I   I32       1.0  0.71289  0.07111  0.03398  1.0000
  I   I33       1.0  0.31064  0.95355  0.48278  1.0000
  I   I34       1.0  0.85228  0.48472  0.91869  1.0000
  I   I35       1.0  0.95327  0.49716  0.42570  1.0000
  I   I36       1.0  0.68144  0.63622  0.94713  1.0000
  I   I37       1.0  0.00713  0.30381  0.45056  1.0000
  I   I38       1.0  0.50480  0.28017  0.20215  1.0000
  I   I39       1.0  0.05252  0.34021  0.52490  1.0000
  I   I40       1.0  0.46644  0.78137  0.56141  1.0000
  I   I41       1.0  0.77162  0.98535  0.90121  1.0000
  I   I42       1.0  0.62806  0.75756  0.27843  1.0000
  I   I43       1.0  0.45415  0.08683  0.04539  1.0000
  I   I44       1.0  0.76253  0.61701  0.99986  1.0000
  I   I45       1.0  0.39593  0.74778  0.82126  1.0000
  I   I46       1.0  0.15525  0.32977  0.86972  1.0000
  I   I47       1.0  0.97995  0.12555  0.93166  1.0000
  I   I48       1.0  0.40350  0.54755  0.65336  1.0000
  I   I49       1.0  0.63957  0.92958  0.43685  1.0000
  I   I50       1.0  0.52137  0.12318  0.22223  1.0000
  I   I51       1.0  0.54725  0.06734  0.29351  1.0000
  I   I52       1.0  0.57445  0.36505  0.92501  1.0000
  I   I53       1.0  0.23030  0.74516  0.01267  1.0000
  I   I54       1.0  0.29290  0.12707  0.41289  1.0000
  I   I55       1.0  0.05323  0.82749  0.76596  1.0000
  I   I56       1.0  0.31438  0.59180  0.18503  1.0000
  I   I57       1.0  0.26379  0.90168  0.90733  1.0000
  I   I58       1.0  0.87256  0.73673  0.97885  1.0000
  I   I59       1.0  0.82534  0.80030  0.03660  1.0000
  I   I60       1.0  0.24938  0.60090  0.53074  1.0000
  I   I61       1.0  0.31269  0.33173  0.20072  1.0000
  I   I62       1.0  0.34460  0.35679  0.27975  1.0000
  I   I63       1.0  0.17341  0.95261  0.79030  1.0000
  I   I64       1.0  0.78986  0.69183  0.68351  1.0000
  I   I65       1.0  0.03736  0.56032  0.98683  1.0000
  I   I66       1.0  0.39522  0.43308  0.34033  1.0000
  I   I67       1.0  0.94900  0.89030  0.47140  1.0000
  I   I68       1.0  0.22794  0.01898  0.46963  1.0000
  I   I69       1.0  0.79166  0.20788  0.28795  1.0000
  I   I70       1.0  0.64569  0.60219  0.16568  1.0000
  I   I71       1.0  0.72182  0.85524  0.87515  1.0000
  I   I72       1.0  0.86948  0.97756  0.00243  1.0000
  I   I73       1.0  0.09352  0.73342  0.87556  1.0000
  I   I74       1.0  0.03751  0.13826  0.17891  1.0000
  I   I75       1.0  0.05602  0.17286  0.26078  1.0000
  I   I76       1.0  0.60163  0.46613  0.33621  1.0000
  I   I77       1.0  0.54316  0.50672  0.24742  1.0000
  I   I78       1.0  0.04327  0.98489  0.02956  1.0000
  I   I79       1.0  0.32929  0.88105  0.50610  1.0000
  I   I80       1.0  0.74473  0.36549  0.61477  1.0000
  I   I81       1.0  0.73758  0.00686  0.09069  1.0000
  I   I82       1.0  0.65333  0.63157  0.84611  1.0000
  I   I83       1.0  0.83816  0.47209  0.80500  1.0000
  I   I84       1.0  0.04492  0.52942  0.53024  1.0000
  I   I85       1.0  0.06064  0.22799  0.42885  1.0000
  I   I86       1.0  0.37017  0.38616  0.57168  1.0000
  I   I87       1.0  0.56435  0.31659  0.11232  1.0000
  I   I88       1.0  0.71327  0.74531  0.33124  1.0000
  I   I89       1.0  0.52484  0.75431  0.48735  1.0000
  I   I90       1.0  0.70383  0.03310  0.84680  1.0000
  I   I91       1.0  0.35265  0.72019  0.80849  1.0000
  I   I92       1.0  0.89716  0.14495  0.63489  1.0000
  I   I93       1.0  0.82946  0.56740  0.01297  1.0000
  I   I94       1.0  0.43807  0.56931  0.48801  1.0000
  I   I95       1.0  0.10560  0.26909  0.04616  1.0000
  I   I96       1.0  0.01046  0.11438  0.02589  1.0000
  I   I97       1.0  0.01246  0.42375  0.98084  1.0000
  I   I98       1.0  0.61035  0.87770  0.50555  1.0000
  I   I99       1.0  0.54853  0.11312  0.37019  1.0000
  I   I100      1.0  0.66378  0.35594  0.84181  1.0000
  I   I101      1.0  0.59125  0.36599  0.03283  1.0000
  I   I102      1.0  0.16781  0.86309  0.91448  1.0000
  I   I103      1.0  0.12246  0.82349  0.76892  1.0000
  I   I104      1.0  0.02957  0.86191  0.97643  1.0000
  I   I105      1.0  0.33753  0.88606  0.85992  1.0000
  I   I106      1.0  0.27769  0.53042  0.53714  1.0000
  I   I107      1.0  0.86639  0.77229  0.13838  1.0000
  I   I108      1.0  0.31316  0.59416  0.59079  1.0000
  I   I109      1.0  0.38988  0.92797  0.22192  1.0000
  I   I110      1.0  0.20687  0.41961  0.22985  1.0000
  I   I111      1.0  0.10972  0.00942  0.82556  1.0000
  I   I112      1.0  0.86541  0.66967  0.61253  1.0000
  I   I113      1.0  0.01299  0.55595  0.87525  1.0000
  I   I114      1.0  0.22240  0.31445  0.30979  1.0000
  I   I115      1.0  0.82912  0.92929  0.60231  1.0000
  I   I116      1.0  0.88332  0.93541  0.40290  1.0000
  I   I117      1.0  0.26636  0.05318  0.61956  1.0000
  I   I118      1.0  0.61719  0.64020  0.05841  1.0000
  I   I119      1.0  0.57202  0.61009  0.12085  1.0000
  I   I120      1.0  0.84186  0.04054  0.09286  1.0000
  I   I121      1.0  0.09150  0.62693  0.97454  1.0000
  I   I122      1.0  0.12171  0.42271  0.67657  1.0000
  I   I123      1.0  0.09438  0.07470  0.19524  1.0000
  I   I124      1.0  0.85437  0.45541  0.30792  1.0000
  I   I125      1.0  0.59426  0.54711  0.41268  1.0000
  I   I126      1.0  0.10075  0.93259  0.08629  1.0000
  I   I127      1.0  0.34006  0.90980  0.38439  1.0000
  I   I128      1.0  0.70264  0.42655  0.65226  1.0000
  I   I129      1.0  0.65220  0.08985  0.03898  1.0000
  I   I130      1.0  0.02320  0.56886  0.43520  1.0000
  I   I131      1.0  0.67985  0.70112  0.85498  1.0000
  I   I132      1.0  0.83646  0.53812  0.79802  1.0000
  I   I133      1.0  0.53842  0.30562  0.23442  1.0000
  I   I134      1.0  0.43871  0.38389  0.67424  1.0000
  I   I135      1.0  0.40626  0.42065  0.58185  1.0000
  I   I136      1.0  0.67075  0.06133  0.74608  1.0000
  I   I137      1.0  0.65288  0.81394  0.45334  1.0000
  I   I138      1.0  0.50953  0.69003  0.37793  1.0000
  I   I139      1.0  0.41157  0.72006  0.94387  1.0000
  I   I140      1.0  0.88462  0.18059  0.52582  1.0000
  I   I141      1.0  0.83466  0.61768  0.00462  1.0000
  I   I142      1.0  0.43478  0.59036  0.58044  1.0000
  I   I143      1.0  0.18403  0.22866  0.02928  1.0000
  I   I144      1.0  0.01569  0.14388  0.84543  1.0000
  I   I145      1.0  0.58889  0.92256  0.39770  1.0000
  I   I146      1.0  0.48192  0.10669  0.35959  1.0000
  I   I147      1.0  0.03190  0.48214  0.02710  1.0000
  I   I148      1.0  0.62785  0.39354  0.00616  1.0000
  I   I149      1.0  0.19959  0.89212  0.97633  1.0000
  I   I150      1.0  0.34203  0.09504  0.50832  1.0000
  I   I151      1.0  0.09016  0.80905  0.86426  1.0000
  I   I152      1.0  0.28205  0.51375  0.09187  1.0000
  I   I153      1.0  0.29190  0.91988  0.01180  1.0000
  I   I154      1.0  0.40987  0.04641  0.10783  1.0000
  I   I155      1.0  0.37378  0.49963  0.90271  1.0000
  I   I156      1.0  0.27787  0.56686  0.64080  1.0000
  I   I157      1.0  0.36397  0.93900  0.07672  1.0000
  I   I158      1.0  0.16120  0.86226  0.76006  1.0000
  I   I159      1.0  0.42547  0.95405  0.24420  1.0000
  I   I160      1.0  0.87185  0.64319  0.48994  1.0000
  I   I161      1.0  0.17225  0.34122  0.21634  1.0000
  I   I162      1.0  0.86502  0.60924  0.58334  1.0000
  I   I163      1.0  0.93029  0.85581  0.39152  1.0000
  I   I164      1.0  0.22486  0.08705  0.71633  1.0000
  I   I165      1.0  0.83079  0.26046  0.13529  1.0000
  I   I166      1.0  0.56512  0.59304  0.98540  1.0000
  I   I167      1.0  0.78098  0.83449  0.88434  1.0000
  I   I168      1.0  0.28259  0.73015  0.57217  1.0000
  I   I169      1.0  0.15246  0.37795  0.59676  1.0000
  I   I170      1.0  0.15271  0.32227  0.66258  1.0000
  I   I171      1.0  0.08094  0.61095  0.85739  1.0000
  I   I172      1.0  0.83063  0.51068  0.23668  1.0000
  I   I173      1.0  0.11239  0.99373  0.15738  1.0000
  I   I174      1.0  0.90453  0.48026  0.18474  1.0000
  I   I175      1.0  0.76281  0.41132  0.53594  1.0000
  I   I176      1.0  0.66514  0.12908  0.11720  1.0000
  I   I177      1.0  0.31540  0.86667  0.40238  1.0000
  I   I178      1.0  0.59548  0.75585  0.76420  1.0000
  I   I179      1.0  0.89923  0.40730  0.77115  1.0000
  I   I180      1.0  0.92799  0.55807  0.36422  1.0000
  I   I181      1.0  0.08904  0.24126  0.53300  1.0000
  I   I182      1.0  0.39911  0.43257  0.46685  1.0000
  I   I183      1.0  0.54970  0.25909  0.11141  1.0000
  I   I184      1.0  0.66111  0.75529  0.37985  1.0000
  I   I185      1.0  0.55502  0.68832  0.47126  1.0000
  I   I186      1.0  0.79683  0.00768  0.80605  1.0000
  I   I187      1.0  0.85876  0.12244  0.54224  1.0000
  I   I188      1.0  0.84559  0.54868  0.13282  1.0000
  I   I189      1.0  0.39570  0.66689  0.92357  1.0000
  I   I190      1.0  0.11809  0.36028  0.97411  1.0000
  I   I191      1.0  0.45274  0.06896  0.51206  1.0000
  I   I192      1.0  0.48726  0.52952  0.62194  1.0000
  I   I193      1.0  0.56799  0.96389  0.50603  1.0000
  I   I194      1.0  0.40428  0.04201  0.58689  1.0000
  I   I195      1.0  0.00545  0.43751  0.10659  1.0000
  I   I196      1.0  0.54830  0.43453  0.94730  1.0000
  I   I197      1.0  0.38671  0.14154  0.95557  1.0000
  I   I198      1.0  0.27008  0.18360  0.49930  1.0000
  I   I199      1.0  0.07136  0.86840  0.88629  1.0000
  I   I200      1.0  0.36764  0.54426  0.14052  1.0000
  I   I201      1.0  0.31979  0.85736  0.95960  1.0000
  I   I202      1.0  0.88038  0.68467  0.13256  1.0000
  I   I203      1.0  0.84388  0.22234  0.37333  1.0000
  I   I204      1.0  0.24713  0.65491  0.59107  1.0000
  I   I205      1.0  0.32870  0.31306  0.33539  1.0000
  I   I206      1.0  0.12912  0.92397  0.81400  1.0000
  I   I207      1.0  0.42841  0.88826  0.11780  1.0000
  I   I208      1.0  0.80209  0.74610  0.65384  1.0000
  I   I209      1.0  0.21493  0.27839  0.18305  1.0000
  I   I210      1.0  0.92028  0.58870  0.59762  1.0000
  I   I211      1.0  0.85597  0.89568  0.44016  1.0000
  I   I212      1.0  0.22615  0.03236  0.34569  1.0000
  I   I213      1.0  0.90427  0.21268  0.14187  1.0000
  I   I214      1.0  0.69081  0.56952  0.07623  1.0000
  I   I215      1.0  0.73842  0.90023  0.81691  1.0000
  I   I216      1.0  0.29107  0.69462  0.70624  1.0000
  I   I217      1.0  0.09210  0.37828  0.67726  1.0000
  I   I218      1.0  0.99769  0.17348  0.29759  1.0000
  I   I219      1.0  0.14577  0.58249  0.90700  1.0000
  I   I220      1.0  0.57558  0.49316  0.45203  1.0000
  I   I221      1.0  0.04327  0.92116  0.10497  1.0000
  I   I222      1.0  0.88382  0.43779  0.17868  1.0000
  I   I223      1.0  0.80521  0.37972  0.63261  1.0000
  I   I224      1.0  0.65403  0.06791  0.16148  1.0000
  I   I225      1.0  0.39647  0.84568  0.49018  1.0000
  I   I226      1.0  0.62922  0.76175  0.85539  1.0000
  I   I227      1.0  0.90830  0.39419  0.88552  1.0000
  I   I228      1.0  0.06267  0.50233  0.41650  1.0000
  I   I229      1.0  0.10092  0.30809  0.59195  1.0000
  I   I230      1.0  0.35816  0.41864  0.67130  1.0000
  I   I231      1.0  0.44031  0.34364  0.20094  1.0000
  I   I232      1.0  0.69051  0.69793  0.29250  1.0000
  I   I233      1.0  0.54972  0.73029  0.35251  1.0000
  I   I234      1.0  0.70169  0.00293  0.67829  1.0000
  I   I235      1.0  0.47809  0.01950  0.07206  1.0000
  I   I236      1.0  0.77094  0.65670  0.09652  1.0000
  I   I237      1.0  0.42796  0.67356  0.83006  1.0000
  I   I238      1.0  0.18526  0.32411  0.99041  1.0000
  I   I239      1.0  0.05021  0.09097  0.93750  1.0000
  I   I240      1.0  0.49577  0.56898  0.54708  1.0000
  I   I241      1.0  0.60489  0.87341  0.66174  1.0000
  I   I242      1.0  0.50402  0.20805  0.21935  1.0000
  I   I243      1.0  0.06910  0.40916  0.04457  1.0000
  I   I244      1.0  0.63757  0.34017  0.92938  1.0000
  I   I245      1.0  0.23161  0.70136  0.14069  1.0000
  I   I246      1.0  0.26436  0.24261  0.54986  1.0000
  I   I247      1.0  0.02162  0.82013  0.89162  1.0000
  I   I248      1.0  0.29828  0.47388  0.20202  1.0000
  I   I249      1.0  0.32050  0.94577  0.77866  1.0000
  I   I250      1.0  0.85065  0.73623  0.23027  1.0000
  I   I251      1.0  0.32861  0.57596  0.92974  1.0000
  I   I252      1.0  0.30282  0.57962  0.48249  1.0000
  I   I253      1.0  0.21311  0.43418  0.35873  1.0000
  I   I254      1.0  0.11575  0.89758  0.66140  1.0000
  I   I255      1.0  0.45444  0.92912  0.12046  1.0000
  I   I256      1.0  0.01207  0.61896  0.89377  1.0000
  I   I257      1.0  0.23999  0.32461  0.16186  1.0000
  I   I258      1.0  0.84146  0.62127  0.71500  1.0000
  I   I259      1.0  0.79673  0.93075  0.50385  1.0000
  I   I260      1.0  0.24294  0.00923  0.68996  1.0000
  I   I261      1.0  0.85946  0.16022  0.30418  1.0000
  I   I262      1.0  0.57635  0.54738  0.06747  1.0000
  I   I263      1.0  0.77332  0.90284  0.91678  1.0000
  I   I264      1.0  0.22880  0.72383  0.64589  1.0000
  I   I265      1.0  0.15988  0.44036  0.57767  1.0000
  I   I266      1.0  0.04059  0.10216  0.27688  1.0000
  I   I267      1.0  0.09110  0.66802  0.85893  1.0000
  I   I268      1.0  0.57238  0.52653  0.31273  1.0000
  I   I269      1.0  0.13768  0.92492  0.18276  1.0000
  I   I270      1.0  0.96962  0.43278  0.20329  1.0000
  I   I271      1.0  0.76089  0.44435  0.67329  1.0000
  I   I272      1.0  0.68060  0.02307  0.06783  1.0000
  I   I273      1.0  0.38531  0.84239  0.35111  1.0000
  I   I274      1.0  0.71997  0.63696  0.85851  1.0000
  I   I275      1.0  0.84274  0.41598  0.85797  1.0000
  I   I276      1.0  0.01522  0.48801  0.47668  1.0000
  I   I277      1.0  0.01173  0.26403  0.53974  1.0000
  I   I278      1.0  0.43103  0.35142  0.58311  1.0000
  I   I279      1.0  0.50614  0.31073  0.07718  1.0000
  I   I280      1.0  0.72875  0.78063  0.42189  1.0000
  I   I281      1.0  0.48014  0.75339  0.42399  1.0000
  I   I282      1.0  0.75159  0.01034  0.74346  1.0000
  I   I283      1.0  0.44727  0.01697  0.97774  1.0000
  I   I284      1.0  0.89951  0.55199  0.04931  1.0000
  I   I285      1.0  0.35317  0.74737  0.91284  1.0000
  I   I286      1.0  0.12123  0.29503  0.92978  1.0000
  I   I287      1.0  0.98193  0.18101  0.97483  1.0000
  I   I288      1.0  0.37602  0.59134  0.54731  1.0000
  I   I289      1.0  0.57510  0.84905  0.58362  1.0000
  I   I290      1.0  0.48164  0.99889  0.57883  1.0000
  I   I291      1.0  0.49234  0.15821  0.29980  1.0000
  I   I292      1.0  0.68495  0.37003  0.95762  1.0000
  I   I293      1.0  0.28365  0.67639  0.04416  1.0000
  I   I294      1.0  0.33131  0.19056  0.59399  1.0000
  I   I295      1.0  0.06555  0.88656  0.75042  1.0000
  I   I296      1.0  0.33545  0.50805  0.16752  1.0000
  I   I297      1.0  0.28269  0.95063  0.88790  1.0000
  I   I298      1.0  0.40153  0.15779  0.06653  1.0000
  I   I299      1.0  0.82670  0.74838  0.09551  1.0000
  I   I300      1.0  0.33443  0.51885  0.55295  1.0000
  I   I301      1.0  0.36715  0.98296  0.15414  1.0000
  I   I302      1.0  0.25804  0.35781  0.28606  1.0000
  I   I303      1.0  0.12850  0.99026  0.70793  1.0000
  I   I304      1.0  0.89095  0.55394  0.66570  1.0000
  I   I305      1.0  0.85982  0.70082  0.73046  1.0000
  I   I306      1.0  0.38972  0.38856  0.44392  1.0000
  I   I307      1.0  0.84075  0.86398  0.57431  1.0000
  I   I308      1.0  0.16089  0.07615  0.41908  1.0000
  I   I309      1.0  0.82058  0.24947  0.25305  1.0000
  I   I310      1.0  0.63062  0.55308  0.10545  1.0000
  I   I311      1.0  0.70505  0.95955  0.95138  1.0000
  I   I312      1.0  0.79103  0.02562  0.03940  1.0000
  I   I313      1.0  0.13330  0.65404  0.94401  1.0000
  I   I314      1.0  0.16992  0.36391  0.73611  1.0000
  I   I315      1.0  0.10901  0.12134  0.16376  1.0000
  I   I316      1.0  0.90514  0.46741  0.29656  1.0000
  I   I317      1.0  0.64111  0.47921  0.42090  1.0000
  I   I318      1.0  0.07905  0.93414  0.20783  1.0000
  I   I319      1.0  0.26441  0.94168  0.51673  1.0000
  I   I320      1.0  0.82999  0.42154  0.59442  1.0000
  I   I321      1.0  0.70562  0.99997  0.18895  1.0000
  I   I322      1.0  0.62571  0.70051  0.87364  1.0000
  I   I323      1.0  0.90464  0.45775  0.86354  1.0000
  I   I324      1.0  0.94924  0.55381  0.48970  1.0000
  I   I325      1.0  0.12444  0.28290  0.48340  1.0000
  I   I326      1.0  0.45685  0.37280  0.49024  1.0000
  I   I327      1.0  0.49733  0.35476  0.16155  1.0000
  I   I328      1.0  0.69104  0.73661  0.20366  1.0000
  I   I329      1.0  0.52138  0.72441  0.59770  1.0000
  I   I330      1.0  0.69648  0.98420  0.78968  1.0000
  I   I331      1.0  0.33968  0.77661  0.74131  1.0000
  I   I332      1.0  0.39536  0.08442  0.99781  1.0000
  I   I333      1.0  0.78410  0.58245  0.10673  1.0000
  I   I334      1.0  0.50448  0.50254  0.50765  1.0000
  I   I335      1.0  0.15738  0.29122  0.03825  1.0000
  I   I336      1.0  0.95074  0.19606  0.86352  1.0000
  I   I337      1.0  0.61357  0.90988  0.56926  1.0000
  I   I338      1.0  0.44481  0.06329  0.63446  1.0000
  I   I339      1.0  0.54466  0.17268  0.32244  1.0000
  I   I340      1.0  0.60342  0.40740  0.88078  1.0000
  I   I341      1.0  0.16882  0.85494  0.04848  1.0000
  I   I342      1.0  0.27852  0.12283  0.54298  1.0000
  I   I343      1.0  0.02357  0.86698  0.83322  1.0000
  I   I344      1.0  0.23669  0.52896  0.17897  1.0000
  I   I345      1.0  0.25958  0.94759  0.76823  1.0000
  I   I346      1.0  0.36949  0.12309  0.08605  1.0000
  I   I347      1.0  0.91611  0.70795  0.20664  1.0000
  I   I348      1.0  0.28418  0.65587  0.48376  1.0000
  I   I349      1.0  0.46879  0.87651  0.21480  1.0000
  I   I350      1.0  0.24926  0.44424  0.25094  1.0000
  I   I351      1.0  0.09494  0.95824  0.73432  1.0000
  I   I352      1.0  0.90941  0.60445  0.72732  1.0000
  I   I353      1.0  0.96443  0.59872  0.98441  1.0000
  I   I354      1.0  0.43735  0.35310  0.37706  1.0000
  I   I355      1.0  0.88905  0.88890  0.53342  1.0000
  I   I356      1.0  0.19958  0.06937  0.60252  1.0000
  I   I357      1.0  0.86064  0.18154  0.18044  1.0000
  I   I358      1.0  0.25116  0.77366  0.69072  1.0000
  I   I359      1.0  0.71885  0.94193  0.06909  1.0000
  I   I360      1.0  0.83713  0.97788  0.12630  1.0000
  I   I361      1.0  0.14273  0.69524  0.80330  1.0000
  I   I362      1.0  0.21218  0.38031  0.61144  1.0000
  I   I363      1.0  0.04719  0.14471  0.38655  1.0000
  I   I364      1.0  0.94528  0.38843  0.22405  1.0000
  I   I365      1.0  0.51700  0.52814  0.37300  1.0000
  I   I366      1.0  0.00075  0.98920  0.13206  1.0000
  I   I367      1.0  0.27591  0.93448  0.38690  1.0000
  I   I368      1.0  0.75845  0.39327  0.71102  1.0000
  I   I369      1.0  0.72283  0.06063  0.16539  1.0000
  I   I370      1.0  0.65370  0.69786  0.74792  1.0000
  I   I371      1.0  0.87989  0.48193  0.75018  1.0000
  I   I372      1.0  0.99189  0.54370  0.37497  1.0000
  I   I373      1.0  0.07078  0.28462  0.44287  1.0000
  I   I374      1.0  0.39926  0.35108  0.68545  1.0000
  I   I375      1.0  0.48765  0.35101  0.28736  1.0000
  I   I376      1.0  0.71002  0.73626  0.45850  1.0000
  I   I377      1.0  0.48581  0.70447  0.49647  1.0000
  I   I378      1.0  0.74486  0.05982  0.85268  1.0000
  I   I379      1.0  0.34433  0.80328  0.86323  1.0000
  I   I380      1.0  0.82593  0.19426  0.60489  1.0000
  I   I381      1.0  0.84398  0.61427  0.11324  1.0000
  I   I382      1.0  0.44229  0.51389  0.53380  1.0000
  I   I383      1.0  0.14208  0.22407  0.95385  1.0000
  I   I384      1.0  0.98855  0.22603  0.86827  1.0000
