data_image0
_chemical_formula_structural       Ti96I384
_chemical_formula_sum              "Ti96 I384"
_cell_length_a       58.5689
_cell_length_b       59.1044
_cell_length_c       28.5526
_cell_angle_alpha    88.7757
_cell_angle_beta     88.7757
_cell_angle_gamma    62.1586

_space_group_name_H-M_alt    "P 1"
_space_group_IT_number       1

loop_
  _space_group_symop_operation_xyz
  'x, y, z'

loop_
  _atom_site_type_symbol
  _atom_site_label
  _atom_site_symmetry_multiplicity
  _atom_site_fract_x
  _atom_site_fract_y
  _atom_site_fract_z
  _atom_site_occupancy
  Ti  Ti1       1.0  0.87746  0.82177  0.81742  1.0000
  Ti  Ti2       1.0  0.74419  0.02209  0.94835  1.0000
  Ti  Ti3       1.0  0.70098  0.85004  0.53217  1.0000
  Ti  Ti4       1.0  0.45787  0.33476  0.32918  1.0000
  Ti  Ti5       1.0  0.09817  0.77965  0.27156  1.0000
  Ti  Ti6       1.0  0.21140  0.06808  0.14692  1.0000
  Ti  Ti7       1.0  0.98249  0.89648  0.83189  1.0000
  Ti  Ti8       1.0  0.24357  0.66235  0.39916  1.0000
  Ti  Ti9       1.0  0.73937  0.27290  0.23305  1.0000
  Ti  Ti10      1.0  0.60215  0.15489  0.29056  1.0000
  Ti  Ti11      1.0  0.19762  0.56287  0.68177  1.0000
  Ti  Ti12      1.0  0.65123  0.78835  0.05538  1.0000
  Ti  Ti13      1.0  0.41771  0.18799  0.76798  1.0000
  Ti  Ti14      1.0  0.10762  0.38543  0.12071  1.0000
  Ti  Ti15      1.0  0.22710  0.93835  0.95656  1.0000
  Ti  Ti16      1.0  0.97935  0.09754  0.47871  1.0000
  Ti  Ti17      1.0  0.16015  0.47936  0.11260  1.0000
  Ti  Ti18      1.0  0.94822  0.42075  0.28204  1.0000
  Ti  Ti19      1.0  0.68372  0.70363  0.39771  1.0000
  Ti  Ti20      1.0  0.67857  0.90322  0.25431  1.0000
  Ti  Ti21      1.0  0.22284  0.52916  0.50071  1.0000
  Ti  Ti22      1.0  0.43155  0.95838  0.47592  1.0000
  Ti  Ti23      1.0  0.47188  0.87315  0.90659  1.0000
  Ti  Ti24      1.0  0.53702  0.99194  0.58390  1.0000
  Ti  Ti25      1.0  0.22313  0.20356  0.54441  1.0000
  Ti  Ti26      1.0  0.27835  0.37181  0.94689  1.0000
  Ti  Ti27      1.0  0.44870  0.47928  0.54429  1.0000
  Ti  Ti28      1.0  0.62337  0.66287  0.59447  1.0000
  Ti  Ti29      1.0  0.94916  0.22741  0.50376  1.0000
  Ti  Ti30      1.0  0.77768  0.55339  0.73695  1.0000
  Ti  Ti31      1.0  0.76468  0.43276  0.08530  1.0000
  Ti  Ti32      1.0  0.88539  0.02135  0.12625  1.0000
  Ti  Ti33      1.0  0.20041  0.04607  0.60223  1.0000
  Ti  Ti34      1.0  0.95998  0.74729  0.49296  1.0000
  Ti  Ti35      1.0  0.62989  0.50804  0.96346  1.0000
  Ti  Ti36      1.0  0.06290  0.42903  0.54420  1.0000
  Ti  Ti37      1.0  0.05781  0.26252  0.86987  1.0000
  Ti  Ti38      1.0  0.66666  0.27137  0.47342  1.0000
  Ti  Ti39      1.0  0.36666  0.20931  0.16079  1.0000
  Ti  Ti40      1.0  0.18696  0.60270  0.09561  1.0000
  Ti  Ti41      1.0  0.63910  0.52468  0.29545  1.0000
  Ti  Ti42      1.0  0.29167  0.83542  0.21224  1.0000
  Ti  Ti43      1.0  0.14936  0.90513  0.70972  1.0000
  Ti  Ti44      1.0  0.78361  0.71079  0.02949  1.0000
  Ti  Ti45      1.0  0.77244  0.37059  0.64751  1.0000
  Ti  Ti46      1.0  0.78594  0.10790  0.39488  1.0000
  Ti  Ti47      1.0  0.53065  0.32299  0.96053  1.0000
  Ti  Ti48      1.0  0.42905  0.51545  0.21423  1.0000
  Ti  Ti49      1.0  0.94433  0.77009  0.74540  1.0000
  Ti  Ti50      1.0  0.61926  0.04448  0.88873  1.0000
  Ti  Ti51      1.0  0.77830  0.04110  0.86810  1.0000
  Ti  Ti52      1.0  0.38688  0.37756  0.35808  1.0000
  Ti  Ti53      1.0  0.03034  0.81207  0.18913  1.0000
  Ti  Ti54      1.0  0.17762  0.13269  0.05448  1.0000
  Ti  Ti55      1.0  0.03239  0.82865  0.81001  1.0000
  Ti  Ti56      1.0  0.31316  0.65659  0.48141  1.0000
  Ti  Ti57      1.0  0.67431  0.32928  0.16545  1.0000
  Ti  Ti58      1.0  0.10813  0.96221  0.69090  1.0000
  Ti  Ti59      1.0  0.57717  0.09788  0.29426  1.0000
  Ti  Ti60      1.0  0.64434  0.73714  0.01636  1.0000
  Ti  Ti61      1.0  0.25037  0.88222  0.92309  1.0000
  Ti  Ti62      1.0  0.40522  0.14912  0.82043  1.0000
  Ti  Ti63      1.0  0.10334  0.36817  0.99825  1.0000
  Ti  Ti64      1.0  0.92369  0.44549  0.16103  1.0000
  Ti  Ti65      1.0  0.94246  0.08455  0.57045  1.0000
  Ti  Ti66      1.0  0.34591  0.41733  0.79258  1.0000
  Ti  Ti67      1.0  0.76255  0.65863  0.40986  1.0000
  Ti  Ti68      1.0  0.62423  0.93259  0.27469  1.0000
  Ti  Ti69      1.0  0.28491  0.51132  0.48150  1.0000
  Ti  Ti70      1.0  0.47686  0.95622  0.59762  1.0000
  Ti  Ti71      1.0  0.40515  0.87414  0.87389  1.0000
  Ti  Ti72      1.0  0.25902  0.76617  0.61091  1.0000
  Ti  Ti73      1.0  0.42221  0.53312  0.57702  1.0000
  Ti  Ti74      1.0  0.15770  0.23186  0.58285  1.0000
  Ti  Ti75      1.0  0.26400  0.34230  0.84952  1.0000
  Ti  Ti76      1.0  0.73888  0.57318  0.83067  1.0000
  Ti  Ti77      1.0  0.54540  0.67048  0.57669  1.0000
  Ti  Ti78      1.0  0.92959  0.28904  0.46283  1.0000
  Ti  Ti79      1.0  0.26470  0.01368  0.54128  1.0000
  Ti  Ti80      1.0  0.82014  0.44290  0.14403  1.0000
  Ti  Ti81      1.0  0.95780  0.98703  0.12997  1.0000
  Ti  Ti82      1.0  0.88996  0.76111  0.50317  1.0000
  Ti  Ti83      1.0  0.65307  0.43550  0.93013  1.0000
  Ti  Ti84      1.0  0.02874  0.39862  0.63488  1.0000
  Ti  Ti85      1.0  0.98346  0.27466  0.82759  1.0000
  Ti  Ti86      1.0  0.59640  0.28600  0.48059  1.0000
  Ti  Ti87      1.0  0.31661  0.20571  0.24390  1.0000
  Ti  Ti88      1.0  0.19353  0.55284  0.09389  1.0000
  Ti  Ti89      1.0  0.61867  0.49215  0.31409  1.0000
  Ti  Ti90      1.0  0.31205  0.74867  0.19905  1.0000
  Ti  Ti91      1.0  0.80165  0.34556  0.73448  1.0000
  Ti  Ti92      1.0  0.97742  0.04311  0.84241  1.0000
  Ti  Ti93      1.0  0.79962  0.63166  0.97398  1.0000
  Ti  Ti94      1.0  0.46360  0.50734  0.09749  1.0000
  Ti  Ti95      1.0  0.75784  0.05612  0.42069  1.0000
  Ti  Ti96      1.0  0.55523  0.35429  0.90462  1.0000
  I   I1        1.0  0.63314  0.00625  0.94332  1.0000
  I   I2        1.0  0.78583  0.07898  0.90850  1.0000
  I   I3        1.0  0.86643  0.82205  0.90542  1.0000
  I   I4        1.0  0.00520  0.80728  0.11283  1.0000
  I   I5        1.0  0.21534  0.02501  0.10649  1.0000
  I   I6        1.0  0.20201  0.14043  0.97486  1.0000
  I   I7        1.0  0.34618  0.60947  0.48026  1.0000
  I   I8        1.0  0.25999  0.67036  0.48973  1.0000
  I   I9        1.0  0.75614  0.28352  0.30257  1.0000
  I   I10       1.0  0.60841  0.16871  0.20349  1.0000
  I   I11       1.0  0.20431  0.59271  0.73688  1.0000
  I   I12       1.0  0.12152  0.73052  0.25924  1.0000
  I   I13       1.0  0.42964  0.17293  0.87482  1.0000
  I   I14       1.0  0.06701  0.40339  0.06220  1.0000
  I   I15       1.0  0.23676  0.90345  0.02708  1.0000
  I   I16       1.0  0.98641  0.09122  0.57807  1.0000
  I   I17       1.0  0.36638  0.41279  0.87467  1.0000
  I   I18       1.0  0.91122  0.49237  0.14603  1.0000
  I   I19       1.0  0.60666  0.97437  0.32887  1.0000
  I   I20       1.0  0.18570  0.55921  0.56483  1.0000
  I   I21       1.0  0.33311  0.46354  0.48844  1.0000
  I   I22       1.0  0.42930  0.91037  0.86294  1.0000
  I   I23       1.0  0.49608  0.87933  0.82947  1.0000
  I   I24       1.0  0.48780  0.99216  0.62679  1.0000
  I   I25       1.0  0.19879  0.24666  0.59125  1.0000
  I   I26       1.0  0.25316  0.42004  0.94804  1.0000
  I   I27       1.0  0.47488  0.47786  0.46792  1.0000
  I   I28       1.0  0.57808  0.67453  0.52208  1.0000
  I   I29       1.0  0.92444  0.23020  0.42519  1.0000
  I   I30       1.0  0.74400  0.55089  0.67446  1.0000
  I   I31       1.0  0.83840  0.39973  0.10442  1.0000
  I   I32       1.0  0.99527  0.99048  0.08428  1.0000
  I   I33       1.0  0.27741  0.01965  0.45231  1.0000
  I   I34       1.0  0.58087  0.52501  0.97336  1.0000
  I   I35       1.0  0.04955  0.35442  0.68464  1.0000
  I   I36       1.0  0.89756  0.79993  0.51887  1.0000
  I   I37       1.0  0.01456  0.30851  0.84426  1.0000
  I   I38       1.0  0.36630  0.20327  0.26565  1.0000
  I   I39       1.0  0.96037  0.24753  0.84920  1.0000
  I   I40       1.0  0.65829  0.48488  0.37017  1.0000
  I   I41       1.0  0.27490  0.79934  0.17058  1.0000
  I   I42       1.0  0.22688  0.53918  0.16441  1.0000
  I   I43       1.0  0.10999  0.92168  0.62603  1.0000
  I   I44       1.0  0.83611  0.60140  0.91254  1.0000
  I   I45       1.0  0.76825  0.39690  0.72950  1.0000
  I   I46       1.0  0.83347  0.07897  0.40903  1.0000
  I   I47       1.0  0.48179  0.35137  0.96791  1.0000
  I   I48       1.0  0.44576  0.54481  0.24029  1.0000
  I   I49       1.0  0.83623  0.81982  0.79362  1.0000
  I   I50       1.0  0.69599  0.03356  0.95305  1.0000
  I   I51       1.0  0.73575  0.03194  0.84614  1.0000
  I   I52       1.0  0.42844  0.33304  0.41460  1.0000
  I   I53       1.0  0.04544  0.81363  0.28694  1.0000
  I   I54       1.0  0.14231  0.18148  0.06204  1.0000
  I   I55       1.0  0.97548  0.92715  0.76737  1.0000
  I   I56       1.0  0.23808  0.62135  0.42901  1.0000
  I   I57       1.0  0.68315  0.30484  0.24599  1.0000
  I   I58       1.0  0.61428  0.10906  0.25215  1.0000
  I   I59       1.0  0.58091  0.13187  0.35388  1.0000
  I   I60       1.0  0.63645  0.70832  0.07524  1.0000
  I   I61       1.0  0.43223  0.10316  0.84523  1.0000
  I   I62       1.0  0.37072  0.16141  0.89073  1.0000
  I   I63       1.0  0.11337  0.32711  0.05285  1.0000
  I   I64       1.0  0.02551  0.07314  0.45063  1.0000
  I   I65       1.0  0.92438  0.12798  0.51618  1.0000
  I   I66       1.0  0.29876  0.45530  0.79782  1.0000
  I   I67       1.0  0.79986  0.66010  0.45498  1.0000
  I   I68       1.0  0.71092  0.85588  0.27781  1.0000
  I   I69       1.0  0.19442  0.50260  0.50529  1.0000
  I   I70       1.0  0.48578  0.92007  0.50895  1.0000
  I   I71       1.0  0.43812  0.85877  0.95306  1.0000
  I   I72       1.0  0.27564  0.80050  0.60592  1.0000
  I   I73       1.0  0.47318  0.51051  0.57665  1.0000
  I   I74       1.0  0.31065  0.32495  0.89948  1.0000
  I   I75       1.0  0.26256  0.38723  0.83862  1.0000
  I   I76       1.0  0.64876  0.65998  0.52399  1.0000
  I   I77       1.0  0.64109  0.61553  0.61449  1.0000
  I   I78       1.0  0.91485  0.33437  0.49757  1.0000
  I   I79       1.0  0.30551  0.01390  0.57696  1.0000
  I   I80       1.0  0.77443  0.38662  0.12166  1.0000
  I   I81       1.0  0.86707  0.04126  0.04096  1.0000
  I   I82       1.0  0.92245  0.74933  0.42475  1.0000
  I   I83       1.0  0.64094  0.52501  0.03878  1.0000
  I   I84       1.0  0.00942  0.44712  0.57557  1.0000
  I   I85       1.0  0.94453  0.32097  0.86971  1.0000
  I   I86       1.0  0.57300  0.30474  0.40269  1.0000
  I   I87       1.0  0.41732  0.19163  0.14200  1.0000
  I   I88       1.0  0.22923  0.58007  0.04041  1.0000
  I   I89       1.0  0.58944  0.50446  0.38646  1.0000
  I   I90       1.0  0.24577  0.86334  0.25481  1.0000
  I   I91       1.0  0.75864  0.34318  0.74893  1.0000
  I   I92       1.0  0.92872  0.07567  0.85046  1.0000
  I   I93       1.0  0.82741  0.66020  0.99266  1.0000
  I   I94       1.0  0.37798  0.53303  0.22684  1.0000
  I   I95       1.0  0.71838  0.06671  0.47147  1.0000
  I   I96       1.0  0.51166  0.37945  0.86141  1.0000
  I   I97       1.0  0.66840  0.89651  0.54912  1.0000
  I   I98       1.0  0.90598  0.76333  0.79027  1.0000
  I   I99       1.0  0.79819  0.01254  0.95490  1.0000
  I   I100      1.0  0.48798  0.34695  0.36538  1.0000
  I   I101      1.0  0.40736  0.33088  0.31430  1.0000
  I   I102      1.0  0.07641  0.76802  0.17117  1.0000
  I   I103      1.0  0.05869  0.77966  0.83834  1.0000
  I   I104      1.0  0.93439  0.91238  0.84390  1.0000
  I   I105      1.0  0.63328  0.37374  0.18924  1.0000
  I   I106      1.0  0.61013  0.83034  0.04825  1.0000
  I   I107      1.0  0.64900  0.14257  0.31317  1.0000
  I   I108      1.0  0.68867  0.73506  0.06243  1.0000
  I   I109      1.0  0.23416  0.93929  0.86480  1.0000
  I   I110      1.0  0.38362  0.14407  0.74645  1.0000
  I   I111      1.0  0.08217  0.37386  0.19076  1.0000
  I   I112      1.0  0.90002  0.46220  0.25395  1.0000
  I   I113      1.0  0.97111  0.05409  0.48137  1.0000
  I   I114      1.0  0.12717  0.51898  0.06357  1.0000
  I   I115      1.0  0.69543  0.66965  0.33283  1.0000
  I   I116      1.0  0.78544  0.60672  0.39746  1.0000
  I   I117      1.0  0.58430  0.93493  0.23040  1.0000
  I   I118      1.0  0.44253  0.99189  0.53284  1.0000
  I   I119      1.0  0.38872  0.99897  0.46569  1.0000
  I   I120      1.0  0.29090  0.73291  0.66755  1.0000
  I   I121      1.0  0.47960  0.44861  0.60740  1.0000
  I   I122      1.0  0.13485  0.20648  0.55696  1.0000
  I   I123      1.0  0.32082  0.37867  0.95456  1.0000
  I   I124      1.0  0.73569  0.60443  0.75344  1.0000
  I   I125      1.0  0.50967  0.71547  0.58537  1.0000
  I   I126      1.0  0.90605  0.30040  0.37974  1.0000
  I   I127      1.0  0.17340  0.06578  0.67704  1.0000
  I   I128      1.0  0.71795  0.46062  0.11162  1.0000
  I   I129      1.0  0.94676  0.95413  0.09082  1.0000
  I   I130      1.0  0.04249  0.45042  0.46054  1.0000
  I   I131      1.0  0.97668  0.77148  0.42781  1.0000
  I   I132      1.0  0.68434  0.39068  0.95358  1.0000
  I   I133      1.0  0.35632  0.19357  0.08419  1.0000
  I   I134      1.0  0.63760  0.31893  0.43303  1.0000
  I   I135      1.0  0.68768  0.29081  0.52439  1.0000
  I   I136      1.0  0.28529  0.84528  0.11907  1.0000
  I   I137      1.0  0.15582  0.59083  0.04045  1.0000
  I   I138      1.0  0.63284  0.54794  0.21066  1.0000
  I   I139      1.0  0.77238  0.33149  0.60196  1.0000
  I   I140      1.0  0.00012  0.05411  0.77771  1.0000
  I   I141      1.0  0.76084  0.62582  0.94614  1.0000
  I   I142      1.0  0.45755  0.46911  0.14654  1.0000
  I   I143      1.0  0.79295  0.05696  0.34589  1.0000
  I   I144      1.0  0.54471  0.28158  0.01760  1.0000
  I   I145      1.0  0.92885  0.80177  0.82741  1.0000
  I   I146      1.0  0.73625  0.06749  0.97213  1.0000
  I   I147      1.0  0.74790  0.82871  0.55882  1.0000
  I   I148      1.0  0.35028  0.38401  0.41964  1.0000
  I   I149      1.0  0.01815  0.86158  0.17057  1.0000
  I   I150      1.0  0.17164  0.07591  0.19315  1.0000
  I   I151      1.0  0.05924  0.82300  0.72650  1.0000
  I   I152      1.0  0.31524  0.65224  0.56924  1.0000
  I   I153      1.0  0.78168  0.23745  0.19141  1.0000
  I   I154      1.0  0.10641  0.97066  0.78397  1.0000
  I   I155      1.0  0.14856  0.58953  0.68092  1.0000
  I   I156      1.0  0.67835  0.80170  0.10274  1.0000
  I   I157      1.0  0.25526  0.86654  0.84096  1.0000
  I   I158      1.0  0.05810  0.37864  0.95869  1.0000
  I   I159      1.0  0.25818  0.84142  0.97549  1.0000
  I   I160      1.0  0.96809  0.44615  0.14775  1.0000
  I   I161      1.0  0.14463  0.44642  0.08130  1.0000
  I   I162      1.0  0.94811  0.38393  0.33469  1.0000
  I   I163      1.0  0.72112  0.65323  0.45021  1.0000
  I   I164      1.0  0.68886  0.93189  0.31268  1.0000
  I   I165      1.0  0.26529  0.49427  0.55232  1.0000
  I   I166      1.0  0.45021  0.94200  0.66077  1.0000
  I   I167      1.0  0.50003  0.82326  0.90128  1.0000
  I   I168      1.0  0.57676  0.97820  0.53344  1.0000
  I   I169      1.0  0.21300  0.16626  0.52159  1.0000
  I   I170      1.0  0.26308  0.17809  0.60358  1.0000
  I   I171      1.0  0.40408  0.49665  0.60754  1.0000
  I   I172      1.0  0.76217  0.52916  0.88003  1.0000
  I   I173      1.0  0.89860  0.27130  0.50986  1.0000
  I   I174      1.0  0.81320  0.50801  0.73835  1.0000
  I   I175      1.0  0.84357  0.46446  0.10341  1.0000
  I   I176      1.0  0.92666  0.03638  0.10301  1.0000
  I   I177      1.0  0.23649  0.06273  0.55283  1.0000
  I   I178      1.0  0.98064  0.75597  0.56290  1.0000
  I   I179      1.0  0.62678  0.53177  0.88389  1.0000
  I   I180      1.0  0.10619  0.40160  0.50176  1.0000
  I   I181      1.0  0.09965  0.24264  0.82174  1.0000
  I   I182      1.0  0.57543  0.26260  0.52596  1.0000
  I   I183      1.0  0.35709  0.25481  0.12756  1.0000
  I   I184      1.0  0.17161  0.64553  0.04138  1.0000
  I   I185      1.0  0.68236  0.52999  0.29820  1.0000
  I   I186      1.0  0.33917  0.71549  0.26300  1.0000
  I   I187      1.0  0.99858  0.04778  0.91802  1.0000
  I   I188      1.0  0.75537  0.68599  0.00319  1.0000
  I   I189      1.0  0.82269  0.36257  0.65408  1.0000
  I   I190      1.0  0.77204  0.14244  0.45885  1.0000
  I   I191      1.0  0.59013  0.33762  0.83270  1.0000
  I   I192      1.0  0.46465  0.55320  0.09408  1.0000
  I   I193      1.0  0.96690  0.73077  0.69105  1.0000
  I   I194      1.0  0.58630  0.05186  0.82605  1.0000
  I   I195      1.0  0.67767  0.81938  0.54632  1.0000
  I   I196      1.0  0.45026  0.36037  0.24763  1.0000
  I   I197      1.0  0.15921  0.94218  0.67357  1.0000
  I   I198      1.0  0.13382  0.13285  0.03133  1.0000
  I   I199      1.0  0.98873  0.91913  0.90356  1.0000
  I   I200      1.0  0.34395  0.67835  0.46829  1.0000
  I   I201      1.0  0.73064  0.24130  0.28561  1.0000
  I   I202      1.0  0.58912  0.06250  0.22782  1.0000
  I   I203      1.0  0.23718  0.56541  0.63564  1.0000
  I   I204      1.0  0.66997  0.70274  0.95004  1.0000
  I   I205      1.0  0.44636  0.21358  0.75532  1.0000
  I   I206      1.0  0.13807  0.38689  0.02290  1.0000
  I   I207      1.0  0.29518  0.88141  0.94614  1.0000
  I   I208      1.0  0.96623  0.10057  0.38977  1.0000
  I   I209      1.0  0.20780  0.44577  0.09015  1.0000
  I   I210      1.0  0.95538  0.45112  0.34265  1.0000
  I   I211      1.0  0.72223  0.71448  0.42809  1.0000
  I   I212      1.0  0.71190  0.90286  0.19259  1.0000
  I   I213      1.0  0.20472  0.53619  0.40577  1.0000
  I   I214      1.0  0.41711  0.92343  0.47831  1.0000
  I   I215      1.0  0.36969  0.90231  0.81346  1.0000
  I   I216      1.0  0.51621  0.04072  0.58228  1.0000
  I   I217      1.0  0.17281  0.24011  0.49785  1.0000
  I   I218      1.0  0.28481  0.36125  0.03439  1.0000
  I   I219      1.0  0.40371  0.51938  0.49389  1.0000
  I   I220      1.0  0.53473  0.64277  0.63760  1.0000
  I   I221      1.0  0.96769  0.29623  0.42200  1.0000
  I   I222      1.0  0.80643  0.56775  0.69227  1.0000
  I   I223      1.0  0.77197  0.45699  0.19176  1.0000
  I   I224      1.0  0.85389  0.06192  0.16913  1.0000
  I   I225      1.0  0.16329  0.07972  0.55482  1.0000
  I   I226      1.0  0.92938  0.72935  0.55154  1.0000
  I   I227      1.0  0.68065  0.46351  0.95243  1.0000
  I   I228      1.0  0.00229  0.38497  0.57740  1.0000
  I   I229      1.0  0.06347  0.22630  0.93053  1.0000
  I   I230      1.0  0.71118  0.22866  0.46808  1.0000
  I   I231      1.0  0.30549  0.24181  0.17641  1.0000
  I   I232      1.0  0.20551  0.61862  0.16623  1.0000
  I   I233      1.0  0.61355  0.55427  0.36051  1.0000
  I   I234      1.0  0.34740  0.72544  0.13281  1.0000
  I   I235      1.0  0.18625  0.86823  0.66509  1.0000
  I   I236      1.0  0.75278  0.75599  0.98439  1.0000
  I   I237      1.0  0.72356  0.38898  0.65033  1.0000
  I   I238      1.0  0.78762  0.03696  0.49129  1.0000
  I   I239      1.0  0.54188  0.36338  0.99516  1.0000
  I   I240      1.0  0.41345  0.52971  0.12261  1.0000
  I   I241      1.0  0.86024  0.87319  0.79680  1.0000
  I   I242      1.0  0.75767  0.99741  0.03327  1.0000
  I   I243      1.0  0.70751  0.84403  0.44263  1.0000
  I   I244      1.0  0.48652  0.28548  0.31703  1.0000
  I   I245      1.0  0.12536  0.79603  0.22569  1.0000
  I   I246      1.0  0.26024  0.04168  0.18144  1.0000
  I   I247      1.0  0.99895  0.85450  0.89326  1.0000
  I   I248      1.0  0.19715  0.69289  0.42348  1.0000
  I   I249      1.0  0.65522  0.30300  0.11346  1.0000
  I   I250      1.0  0.56767  0.19977  0.31455  1.0000
  I   I251      1.0  0.21845  0.51492  0.70480  1.0000
  I   I252      1.0  0.59537  0.76666  0.00348  1.0000
  I   I253      1.0  0.37038  0.22481  0.80160  1.0000
  I   I254      1.0  0.11289  0.42009  0.17365  1.0000
  I   I255      1.0  0.19758  0.90686  0.93037  1.0000
  I   I256      1.0  0.93687  0.08625  0.66116  1.0000
  I   I257      1.0  0.14958  0.48680  0.20204  1.0000
  I   I258      1.0  0.92209  0.43459  0.07489  1.0000
  I   I259      1.0  0.64391  0.71087  0.44444  1.0000
  I   I260      1.0  0.64848  0.89168  0.19657  1.0000
  I   I261      1.0  0.24312  0.56178  0.47918  1.0000
  I   I262      1.0  0.45043  0.95026  0.38907  1.0000
  I   I263      1.0  0.49009  0.88991  0.97281  1.0000
  I   I264      1.0  0.56192  0.97553  0.65822  1.0000
  I   I265      1.0  0.25113  0.20800  0.47451  1.0000
  I   I266      1.0  0.29489  0.30350  0.79797  1.0000
  I   I267      1.0  0.44712  0.43861  0.51305  1.0000
  I   I268      1.0  0.52132  0.66104  0.50828  1.0000
  I   I269      1.0  0.94127  0.20599  0.57530  1.0000
  I   I270      1.0  0.78509  0.56869  0.82542  1.0000
  I   I271      1.0  0.78754  0.46149  0.05459  1.0000
  I   I272      1.0  0.87188  0.98619  0.15064  1.0000
  I   I273      1.0  0.21033  0.00621  0.54700  1.0000
  I   I274      1.0  0.85997  0.75325  0.57048  1.0000
  I   I275      1.0  0.62699  0.46564  0.00332  1.0000
  I   I276      1.0  0.07628  0.37843  0.61034  1.0000
  I   I277      1.0  0.08249  0.27181  0.93719  1.0000
  I   I278      1.0  0.64844  0.25426  0.53903  1.0000
  I   I279      1.0  0.28737  0.18772  0.22351  1.0000
  I   I280      1.0  0.22314  0.51634  0.03079  1.0000
  I   I281      1.0  0.65919  0.47901  0.23841  1.0000
  I   I282      1.0  0.30644  0.86741  0.23056  1.0000
  I   I283      1.0  0.13063  0.88224  0.77140  1.0000
  I   I284      1.0  0.81961  0.72654  0.02901  1.0000
  I   I285      1.0  0.76787  0.40370  0.57676  1.0000
  I   I286      1.0  0.78610  0.12634  0.31465  1.0000
  I   I287      1.0  0.56007  0.39841  0.90411  1.0000
  I   I288      1.0  0.45196  0.48052  0.27729  1.0000
  I   I289      1.0  0.91295  0.81009  0.69499  1.0000
  I   I290      1.0  0.64827  0.05703  0.83816  1.0000
  I   I291      1.0  0.81737  0.02300  0.81165  1.0000
  I   I292      1.0  0.34889  0.39958  0.28981  1.0000
  I   I293      1.0  0.98843  0.81881  0.23532  1.0000
  I   I294      1.0  0.22367  0.07969  0.06173  1.0000
  I   I295      1.0  0.04588  0.86410  0.82209  1.0000
  I   I296      1.0  0.29708  0.65669  0.38596  1.0000
  I   I297      1.0  0.69166  0.33718  0.08185  1.0000
  I   I298      1.0  0.05632  0.97370  0.70298  1.0000
  I   I299      1.0  0.53942  0.13092  0.24989  1.0000
  I   I300      1.0  0.65412  0.77464  0.95923  1.0000
  I   I301      1.0  0.26048  0.95591  0.98278  1.0000
  I   I302      1.0  0.41091  0.18750  0.67771  1.0000
  I   I303      1.0  0.15328  0.35380  0.15705  1.0000
  I   I304      1.0  0.99854  0.40245  0.25900  1.0000
  I   I305      1.0  0.97803  0.14241  0.48653  1.0000
  I   I306      1.0  0.35124  0.37189  0.77044  1.0000
  I   I307      1.0  0.66174  0.74231  0.34598  1.0000
  I   I308      1.0  0.64416  0.95520  0.21817  1.0000
  I   I309      1.0  0.27842  0.49840  0.39398  1.0000
  I   I310      1.0  0.52130  0.92177  0.62302  1.0000
  I   I311      1.0  0.43742  0.84157  0.81795  1.0000
  I   I312      1.0  0.21917  0.77824  0.66026  1.0000
  I   I313      1.0  0.41058  0.55251  0.66646  1.0000
  I   I314      1.0  0.11653  0.27204  0.60944  1.0000
  I   I315      1.0  0.23355  0.35254  0.92705  1.0000
  I   I316      1.0  0.69561  0.56504  0.81710  1.0000
  I   I317      1.0  0.58356  0.68540  0.66023  1.0000
  I   I318      1.0  0.99951  0.19930  0.47745  1.0000
  I   I319      1.0  0.24983  0.01576  0.64254  1.0000
  I   I320      1.0  0.76076  0.41435  0.00390  1.0000
  I   I321      1.0  0.92004  0.99756  0.20931  1.0000
  I   I322      1.0  0.84568  0.77269  0.45433  1.0000
  I   I323      1.0  0.64629  0.46053  0.84913  1.0000
  I   I324      1.0  0.00756  0.42269  0.71674  1.0000
  I   I325      1.0  0.97483  0.27883  0.74052  1.0000
  I   I326      1.0  0.58635  0.32532  0.53234  1.0000
  I   I327      1.0  0.29759  0.23055  0.32205  1.0000
  I   I328      1.0  0.17225  0.52705  0.13017  1.0000
  I   I329      1.0  0.58326  0.53252  0.26247  1.0000
  I   I330      1.0  0.33587  0.78156  0.23231  1.0000
  I   I331      1.0  0.81075  0.34471  0.82137  1.0000
  I   I332      1.0  0.18437  0.89859  0.77981  1.0000
  I   I333      1.0  0.81594  0.60679  0.05145  1.0000
  I   I334      1.0  0.45333  0.50306  0.00954  1.0000
  I   I335      1.0  0.74698  0.02394  0.36956  1.0000
  I   I336      1.0  0.53390  0.29153  0.88926  1.0000
  I   I337      1.0  0.98697  0.76763  0.77666  1.0000
  I   I338      1.0  0.59566  0.08025  0.95130  1.0000
  I   I339      1.0  0.74856  0.07902  0.81101  1.0000
  I   I340      1.0  0.40472  0.41100  0.35245  1.0000
  I   I341      1.0  0.11921  0.78020  0.34958  1.0000
  I   I342      1.0  0.19041  0.12588  0.14638  1.0000
  I   I343      1.0  0.98408  0.84738  0.77183  1.0000
  I   I344      1.0  0.24341  0.65465  0.30915  1.0000
  I   I345      1.0  0.73066  0.31930  0.18539  1.0000
  I   I346      1.0  0.10336  0.00142  0.63461  1.0000
  I   I347      1.0  0.59143  0.05280  0.34210  1.0000
  I   I348      1.0  0.63028  0.77778  0.12312  1.0000
  I   I349      1.0  0.19063  0.97926  0.97706  1.0000
  I   I350      1.0  0.45088  0.14108  0.76785  1.0000
  I   I351      1.0  0.13887  0.34352  0.93553  1.0000
  I   I352      1.0  0.94449  0.39162  0.19754  1.0000
  I   I353      1.0  0.91901  0.05586  0.54355  1.0000
  I   I354      1.0  0.36275  0.44140  0.73841  1.0000
  I   I355      1.0  0.77133  0.67775  0.33324  1.0000
  I   I356      1.0  0.64289  0.89947  0.34409  1.0000
  I   I357      1.0  0.30904  0.53859  0.50346  1.0000
  I   I358      1.0  0.51403  0.97160  0.52454  1.0000
  I   I359      1.0  0.37385  0.86006  0.92321  1.0000
  I   I360      1.0  0.26355  0.74517  0.52890  1.0000
  I   I361      1.0  0.41626  0.57366  0.52718  1.0000
  I   I362      1.0  0.18323  0.20007  0.66335  1.0000
  I   I363      1.0  0.21761  0.35449  0.80764  1.0000
  I   I364      1.0  0.70898  0.60893  0.88741  1.0000
  I   I365      1.0  0.65453  0.67285  0.64449  1.0000
  I   I366      1.0  0.96252  0.26368  0.53446  1.0000
  I   I367      1.0  0.28772  0.96155  0.54675  1.0000
  I   I368      1.0  0.85023  0.42514  0.21909  1.0000
  I   I369      1.0  0.98992  0.96116  0.19725  1.0000
  I   I370      1.0  0.99464  0.70231  0.47579  1.0000
  I   I371      1.0  0.61228  0.43035  0.90876  1.0000
  I   I372      1.0  0.06788  0.46517  0.58295  1.0000
  I   I373      1.0  0.03280  0.23379  0.82584  1.0000
  I   I374      1.0  0.63771  0.25107  0.42014  1.0000
  I   I375      1.0  0.35776  0.16703  0.19726  1.0000
  I   I376      1.0  0.15657  0.59327  0.15398  1.0000
  I   I377      1.0  0.61304  0.45386  0.28234  1.0000
  I   I378      1.0  0.27783  0.73358  0.20609  1.0000
  I   I379      1.0  0.82970  0.29656  0.71530  1.0000
  I   I380      1.0  0.98135  0.99945  0.85753  1.0000
  I   I381      1.0  0.76793  0.72126  0.11226  1.0000
  I   I382      1.0  0.51593  0.47954  0.06845  1.0000
  I   I383      1.0  0.73888  0.10263  0.39144  1.0000
  I   I384      1.0  0.58327  0.30356  0.94622  1.0000
