data_image0
_chemical_formula_structural       Ti96I384
_chemical_formula_sum              "Ti96 I384"
_cell_length_a       55.9372
_cell_length_b       56.286
_cell_length_c       27.2347
_cell_angle_alpha    88.7757
_cell_angle_beta     88.7757
_cell_angle_gamma    62.1586

_space_group_name_H-M_alt    "P 1"
_space_group_IT_number       1

loop_
  _space_group_symop_operation_xyz
  'x, y, z'

loop_
  _atom_site_type_symbol
  _atom_site_label
  _atom_site_symmetry_multiplicity
  _atom_site_fract_x
  _atom_site_fract_y
  _atom_site_fract_z
  _atom_site_occupancy
  Ti  Ti1       1.0  0.90068  0.64490  0.03759  1.0000
  Ti  Ti2       1.0  0.88119  0.98762  0.10592  1.0000
  Ti  Ti3       1.0  0.90278  0.62840  0.37519  1.0000
  Ti  Ti4       1.0  0.30383  0.11148  0.47487  1.0000
  Ti  Ti5       1.0  0.94846  0.20705  0.09298  1.0000
  Ti  Ti6       1.0  0.09074  0.20423  0.47965  1.0000
  Ti  Ti7       1.0  0.96243  0.87791  0.50193  1.0000
  Ti  Ti8       1.0  0.00189  0.03028  0.56718  1.0000
  Ti  Ti9       1.0  0.80876  0.96915  0.77333  1.0000
  Ti  Ti10      1.0  0.36936  0.92145  0.14942  1.0000
  Ti  Ti11      1.0  0.26205  0.58510  0.82462  1.0000
  Ti  Ti12      1.0  0.82740  0.77533  0.79424  1.0000
  Ti  Ti13      1.0  0.41123  0.31887  0.55050  1.0000
  Ti  Ti14      1.0  0.26428  0.31997  0.41134  1.0000
  Ti  Ti15      1.0  0.27181  0.04854  0.96703  1.0000
  Ti  Ti16      1.0  0.19652  0.73462  0.29319  1.0000
  Ti  Ti17      1.0  0.23920  0.67456  0.01752  1.0000
  Ti  Ti18      1.0  0.10274  0.38301  0.09758  1.0000
  Ti  Ti19      1.0  0.64241  0.66533  0.41353  1.0000
  Ti  Ti20      1.0  0.74896  0.79873  0.07715  1.0000
  Ti  Ti21      1.0  0.23592  0.48600  0.04773  1.0000
  Ti  Ti22      1.0  0.50858  0.04342  0.51231  1.0000
  Ti  Ti23      1.0  0.58523  0.93620  0.88335  1.0000
  Ti  Ti24      1.0  0.53306  0.89168  0.51742  1.0000
  Ti  Ti25      1.0  0.30267  0.19231  0.86673  1.0000
  Ti  Ti26      1.0  0.21316  0.32706  0.68806  1.0000
  Ti  Ti27      1.0  0.27654  0.49594  0.51404  1.0000
  Ti  Ti28      1.0  0.53274  0.57511  0.59629  1.0000
  Ti  Ti29      1.0  0.73742  0.40342  0.52586  1.0000
  Ti  Ti30      1.0  0.82873  0.46424  0.61747  1.0000
  Ti  Ti31      1.0  0.56734  0.52818  0.10764  1.0000
  Ti  Ti32      1.0  0.83745  0.16206  0.43028  1.0000
  Ti  Ti33      1.0  0.90668  0.40694  0.04875  1.0000
  Ti  Ti34      1.0  0.04543  0.74018  0.25087  1.0000
  Ti  Ti35      1.0  0.68312  0.55600  0.87344  1.0000
  Ti  Ti36      1.0  0.13717  0.50459  0.90417  1.0000
  Ti  Ti37      1.0  0.69198  0.26854  0.13618  1.0000
  Ti  Ti38      1.0  0.53030  0.34803  0.32711  1.0000
  Ti  Ti39      1.0  0.44550  0.59045  0.16582  1.0000
  Ti  Ti40      1.0  0.26328  0.97606  0.70902  1.0000
  Ti  Ti41      1.0  0.61694  0.36205  0.75488  1.0000
  Ti  Ti42      1.0  0.46029  0.76118  0.00256  1.0000
  Ti  Ti43      1.0  0.85584  0.13373  0.87966  1.0000
  Ti  Ti44      1.0  0.90136  0.46874  0.26673  1.0000
  Ti  Ti45      1.0  0.01515  0.48013  0.36309  1.0000
  Ti  Ti46      1.0  0.56622  0.14477  0.49974  1.0000
  Ti  Ti47      1.0  0.47361  0.15818  0.25103  1.0000
  Ti  Ti48      1.0  0.48844  0.30100  0.89110  1.0000
  Ti  Ti49      1.0  0.89889  0.60237  0.15154  1.0000
  Ti  Ti50      1.0  0.79874  0.99980  0.10664  1.0000
  Ti  Ti51      1.0  0.88148  0.05340  0.13454  1.0000
  Ti  Ti52      1.0  0.31393  0.06928  0.59415  1.0000
  Ti  Ti53      1.0  0.97495  0.14640  0.99731  1.0000
  Ti  Ti54      1.0  0.06864  0.18554  0.58005  1.0000
  Ti  Ti55      1.0  0.98248  0.87738  0.61128  1.0000
  Ti  Ti56      1.0  0.99430  0.01151  0.68202  1.0000
  Ti  Ti57      1.0  0.76514  0.01612  0.67666  1.0000
  Ti  Ti58      1.0  0.22325  0.84812  0.18165  1.0000
  Ti  Ti59      1.0  0.44396  0.90083  0.20610  1.0000
  Ti  Ti60      1.0  0.87880  0.75118  0.66588  1.0000
  Ti  Ti61      1.0  0.26538  0.09617  0.09213  1.0000
  Ti  Ti62      1.0  0.43138  0.27829  0.63621  1.0000
  Ti  Ti63      1.0  0.32549  0.26104  0.30697  1.0000
  Ti  Ti64      1.0  0.17208  0.33374  0.09947  1.0000
  Ti  Ti65      1.0  0.21988  0.68877  0.18314  1.0000
  Ti  Ti66      1.0  0.24492  0.78076  0.66803  1.0000
  Ti  Ti67      1.0  0.64980  0.69643  0.51542  1.0000
  Ti  Ti68      1.0  0.77540  0.82863  0.14934  1.0000
  Ti  Ti69      1.0  0.28364  0.44846  0.96333  1.0000
  Ti  Ti70      1.0  0.52148  0.96164  0.48536  1.0000
  Ti  Ti71      1.0  0.62711  0.92620  0.74839  1.0000
  Ti  Ti72      1.0  0.52789  0.00767  0.93259  1.0000
  Ti  Ti73      1.0  0.25042  0.52460  0.41625  1.0000
  Ti  Ti74      1.0  0.25691  0.23411  0.71909  1.0000
  Ti  Ti75      1.0  0.16864  0.37938  0.59202  1.0000
  Ti  Ti76      1.0  0.88870  0.46727  0.68225  1.0000
  Ti  Ti77      1.0  0.47044  0.55340  0.63935  1.0000
  Ti  Ti78      1.0  0.78489  0.42372  0.59807  1.0000
  Ti  Ti79      1.0  0.85834  0.46432  0.97859  1.0000
  Ti  Ti80      1.0  0.60378  0.53039  0.18292  1.0000
  Ti  Ti81      1.0  0.85372  0.15568  0.32680  1.0000
  Ti  Ti82      1.0  0.04711  0.68085  0.16102  1.0000
  Ti  Ti83      1.0  0.71356  0.59546  0.94503  1.0000
  Ti  Ti84      1.0  0.07980  0.55410  0.79175  1.0000
  Ti  Ti85      1.0  0.68414  0.32775  0.17848  1.0000
  Ti  Ti86      1.0  0.55650  0.28949  0.30557  1.0000
  Ti  Ti87      1.0  0.37977  0.67481  0.17205  1.0000
  Ti  Ti88      1.0  0.33116  0.92787  0.66636  1.0000
  Ti  Ti89      1.0  0.56990  0.38071  0.64048  1.0000
  Ti  Ti90      1.0  0.45245  0.70120  0.95899  1.0000
  Ti  Ti91      1.0  0.05501  0.51748  0.26943  1.0000
  Ti  Ti92      1.0  0.81676  0.21642  0.86013  1.0000
  Ti  Ti93      1.0  0.95640  0.45515  0.34052  1.0000
  Ti  Ti94      1.0  0.49182  0.36622  0.93331  1.0000
  Ti  Ti95      1.0  0.58264  0.07185  0.56717  1.0000
  Ti  Ti96      1.0  0.42913  0.16394  0.12383  1.0000
  I   I1        1.0  0.77780  0.03356  0.02949  1.0000
  I   I2        1.0  0.92524  0.94388  0.09484  1.0000
  I   I3        1.0  0.86342  0.62291  0.06299  1.0000
  I   I4        1.0  0.92856  0.18952  0.01065  1.0000
  I   I5        1.0  0.06137  0.14654  0.62445  1.0000
  I   I6        1.0  0.04285  0.24057  0.54738  1.0000
  I   I7        1.0  0.01622  0.96139  0.72415  1.0000
  I   I8        1.0  0.95989  0.06385  0.61483  1.0000
  I   I9        1.0  0.81006  0.00374  0.83652  1.0000
  I   I10       1.0  0.39281  0.90945  0.24431  1.0000
  I   I11       1.0  0.26765  0.62903  0.81084  1.0000
  I   I12       1.0  0.22671  0.80023  0.18802  1.0000
  I   I13       1.0  0.46216  0.27914  0.52214  1.0000
  I   I14       1.0  0.31232  0.24648  0.22442  1.0000
  I   I15       1.0  0.24551  0.02043  0.99216  1.0000
  I   I16       1.0  0.19993  0.74505  0.19320  1.0000
  I   I17       1.0  0.28907  0.75855  0.61816  1.0000
  I   I18       1.0  0.19734  0.28979  0.15778  1.0000
  I   I19       1.0  0.75024  0.87438  0.10036  1.0000
  I   I20       1.0  0.22235  0.53640  0.07716  1.0000
  I   I21       1.0  0.24909  0.43354  0.01409  1.0000
  I   I22       1.0  0.59871  0.94391  0.67099  1.0000
  I   I23       1.0  0.58625  0.96913  0.80997  1.0000
  I   I24       1.0  0.56968  0.92018  0.50801  1.0000
  I   I25       1.0  0.26036  0.19988  0.79910  1.0000
  I   I26       1.0  0.18764  0.32095  0.60102  1.0000
  I   I27       1.0  0.23052  0.55303  0.50498  1.0000
  I   I28       1.0  0.52664  0.53564  0.65315  1.0000
  I   I29       1.0  0.79619  0.38812  0.53173  1.0000
  I   I30       1.0  0.85017  0.43508  0.70732  1.0000
  I   I31       1.0  0.58355  0.51163  0.01434  1.0000
  I   I32       1.0  0.85481  0.10717  0.38180  1.0000
  I   I33       1.0  0.95656  0.36718  0.03186  1.0000
  I   I34       1.0  0.63200  0.56667  0.88302  1.0000
  I   I35       1.0  0.08749  0.59170  0.82190  1.0000
  I   I36       1.0  0.07492  0.66411  0.08209  1.0000
  I   I37       1.0  0.67729  0.28519  0.23644  1.0000
  I   I38       1.0  0.36918  0.66887  0.27023  1.0000
  I   I39       1.0  0.66822  0.34312  0.27811  1.0000
  I   I40       1.0  0.56102  0.39432  0.74160  1.0000
  I   I41       1.0  0.49060  0.64925  0.96662  1.0000
  I   I42       1.0  0.30252  0.92126  0.75366  1.0000
  I   I43       1.0  0.89110  0.11760  0.96003  1.0000
  I   I44       1.0  0.94761  0.41804  0.28842  1.0000
  I   I45       1.0  0.04012  0.43887  0.43208  1.0000
  I   I46       1.0  0.57613  0.12777  0.41103  1.0000
  I   I47       1.0  0.49126  0.10754  0.23257  1.0000
  I   I48       1.0  0.51784  0.36801  0.01786  1.0000
  I   I49       1.0  0.88902  0.64866  0.94973  1.0000
  I   I50       1.0  0.84653  0.97118  0.16206  1.0000
  I   I51       1.0  0.85293  0.08851  0.07724  1.0000
  I   I52       1.0  0.32955  0.07474  0.67725  1.0000
  I   I53       1.0  0.98261  0.21323  0.15044  1.0000
  I   I54       1.0  0.05703  0.17099  0.48875  1.0000
  I   I55       1.0  0.93245  0.92737  0.46938  1.0000
  I   I56       1.0  0.01536  0.04270  0.69416  1.0000
  I   I57       1.0  0.82540  0.99285  0.68924  1.0000
  I   I58       1.0  0.48233  0.88565  0.14313  1.0000
  I   I59       1.0  0.33016  0.96421  0.19430  1.0000
  I   I60       1.0  0.84240  0.78514  0.87617  1.0000
  I   I61       1.0  0.46100  0.22677  0.65158  1.0000
  I   I62       1.0  0.39358  0.28346  0.70112  1.0000
  I   I63       1.0  0.28638  0.33293  0.48050  1.0000
  I   I64       1.0  0.22169  0.69885  0.36337  1.0000
  I   I65       1.0  0.22279  0.64255  0.16321  1.0000
  I   I66       1.0  0.22866  0.83211  0.65750  1.0000
  I   I67       1.0  0.62112  0.75019  0.53675  1.0000
  I   I68       1.0  0.75059  0.75097  0.08594  1.0000
  I   I69       1.0  0.30432  0.41732  0.87912  1.0000
  I   I70       1.0  0.48226  0.01721  0.45825  1.0000
  I   I71       1.0  0.64053  0.91168  0.85184  1.0000
  I   I72       1.0  0.54333  0.04389  0.91409  1.0000
  I   I73       1.0  0.28153  0.44767  0.55185  1.0000
  I   I74       1.0  0.25909  0.27893  0.66083  1.0000
  I   I75       1.0  0.16849  0.37829  0.49558  1.0000
  I   I76       1.0  0.51878  0.62525  0.62052  1.0000
  I   I77       1.0  0.43101  0.59536  0.68676  1.0000
  I   I78       1.0  0.77689  0.46638  0.65292  1.0000
  I   I79       1.0  0.82263  0.46339  0.91651  1.0000
  I   I80       1.0  0.64122  0.50853  0.25196  1.0000
  I   I81       1.0  0.83152  0.13710  0.50653  1.0000
  I   I82       1.0  0.02590  0.73156  0.32975  1.0000
  I   I83       1.0  0.71074  0.50481  0.90827  1.0000
  I   I84       1.0  0.08109  0.56536  0.70187  1.0000
  I   I85       1.0  0.73491  0.29791  0.17966  1.0000
  I   I86       1.0  0.55574  0.24476  0.33445  1.0000
  I   I87       1.0  0.41386  0.56796  0.16119  1.0000
  I   I88       1.0  0.21866  0.97952  0.76017  1.0000
  I   I89       1.0  0.60026  0.33095  0.69421  1.0000
  I   I90       1.0  0.42088  0.80867  0.98072  1.0000
  I   I91       1.0  0.07722  0.48787  0.19573  1.0000
  I   I92       1.0  0.86812  0.17853  0.88744  1.0000
  I   I93       1.0  0.96352  0.50074  0.38700  1.0000
  I   I94       1.0  0.51669  0.38151  0.86223  1.0000
  I   I95       1.0  0.62161  0.02868  0.61984  1.0000
  I   I96       1.0  0.45067  0.11454  0.09488  1.0000
  I   I97       1.0  0.94746  0.63047  0.38512  1.0000
  I   I98       1.0  0.92424  0.67622  0.01276  1.0000
  I   I99       1.0  0.90492  0.00199  0.18776  1.0000
  I   I100      1.0  0.28384  0.12712  0.57590  1.0000
  I   I101      1.0  0.30372  0.09811  0.38450  1.0000
  I   I102      1.0  0.98892  0.19097  0.02684  1.0000
  I   I103      1.0  0.96905  0.84308  0.66323  1.0000
  I   I104      1.0  0.96303  0.85859  0.41364  1.0000
  I   I105      1.0  0.73850  0.01273  0.59501  1.0000
  I   I106      1.0  0.77603  0.80319  0.79497  1.0000
  I   I107      1.0  0.40354  0.93835  0.11504  1.0000
  I   I108      1.0  0.86488  0.78680  0.74822  1.0000
  I   I109      1.0  0.30455  0.09861  0.13916  1.0000
  I   I110      1.0  0.40511  0.27465  0.55405  1.0000
  I   I111      1.0  0.22858  0.36450  0.37633  1.0000
  I   I112      1.0  0.13132  0.39194  0.02241  1.0000
  I   I113      1.0  0.26190  0.67462  0.24722  1.0000
  I   I114      1.0  0.28880  0.64330  0.99849  1.0000
  I   I115      1.0  0.60531  0.69504  0.48610  1.0000
  I   I116      1.0  0.68543  0.68472  0.58847  1.0000
  I   I117      1.0  0.71874  0.82440  0.15924  1.0000
  I   I118      1.0  0.55891  0.96586  0.42177  1.0000
  I   I119      1.0  0.52138  0.06402  0.43857  1.0000
  I   I120      1.0  0.58166  0.96011  0.96189  1.0000
  I   I121      1.0  0.29580  0.51223  0.58411  1.0000
  I   I122      1.0  0.28793  0.24283  0.80168  1.0000
  I   I123      1.0  0.23432  0.34963  0.61329  1.0000
  I   I124      1.0  0.83215  0.50742  0.68077  1.0000
  I   I125      1.0  0.44299  0.54020  0.57881  1.0000
  I   I126      1.0  0.74850  0.46332  0.52838  1.0000
  I   I127      1.0  0.91541  0.45037  0.04106  1.0000
  I   I128      1.0  0.56140  0.52091  0.21729  1.0000
  I   I129      1.0  0.79428  0.18713  0.35153  1.0000
  I   I130      1.0  0.18066  0.46107  0.88232  1.0000
  I   I131      1.0  0.02357  0.74048  0.14955  1.0000
  I   I132      1.0  0.68939  0.64722  0.96480  1.0000
  I   I133      1.0  0.43377  0.64027  0.20811  1.0000
  I   I134      1.0  0.60782  0.26695  0.27275  1.0000
  I   I135      1.0  0.49741  0.39181  0.28610  1.0000
  I   I136      1.0  0.49759  0.76315  0.94339  1.0000
  I   I137      1.0  0.34543  0.90558  0.58142  1.0000
  I   I138      1.0  0.62587  0.38423  0.83564  1.0000
  I   I139      1.0  0.01745  0.51188  0.43321  1.0000
  I   I140      1.0  0.82497  0.23221  0.77498  1.0000
  I   I141      1.0  0.94454  0.48499  0.25588  1.0000
  I   I142      1.0  0.44906  0.29645  0.85189  1.0000
  I   I143      1.0  0.54292  0.11094  0.50972  1.0000
  I   I144      1.0  0.37927  0.18105  0.10677  1.0000
  I   I145      1.0  0.85823  0.60997  0.20069  1.0000
  I   I146      1.0  0.86258  0.97715  0.01917  1.0000
  I   I147      1.0  0.87059  0.65994  0.31580  1.0000
  I   I148      1.0  0.35131  0.02283  0.57738  1.0000
  I   I149      1.0  0.97660  0.14874  0.90231  1.0000
  I   I150      1.0  0.13177  0.16861  0.42161  1.0000
  I   I151      1.0  0.00408  0.83609  0.53835  1.0000
  I   I152      1.0  0.99041  0.04173  0.46843  1.0000
  I   I153      1.0  0.78149  0.95982  0.68609  1.0000
  I   I154      1.0  0.22948  0.85790  0.27585  1.0000
  I   I155      1.0  0.20988  0.59407  0.81233  1.0000
  I   I156      1.0  0.82226  0.76519  0.68615  1.0000
  I   I157      1.0  0.24828  0.14405  0.04948  1.0000
  I   I158      1.0  0.26751  0.28664  0.32631  1.0000
  I   I159      1.0  0.28424  0.08702  0.93779  1.0000
  I   I160      1.0  0.08078  0.35897  0.04173  1.0000
  I   I161      1.0  0.26020  0.68981  0.09793  1.0000
  I   I162      1.0  0.05421  0.42688  0.10682  1.0000
  I   I163      1.0  0.66777  0.63589  0.50439  1.0000
  I   I164      1.0  0.78538  0.80309  0.02128  1.0000
  I   I165      1.0  0.28357  0.46123  0.08506  1.0000
  I   I166      1.0  0.53400  0.99281  0.54977  1.0000
  I   I167      1.0  0.58673  0.91049  0.78280  1.0000
  I   I168      1.0  0.48923  0.88532  0.49102  1.0000
  I   I169      1.0  0.32572  0.21766  0.90987  1.0000
  I   I170      1.0  0.21037  0.27929  0.74138  1.0000
  I   I171      1.0  0.30619  0.46738  0.43862  1.0000
  I   I172      1.0  0.93571  0.42925  0.69540  1.0000
  I   I173      1.0  0.74281  0.41106  0.42802  1.0000
  I   I174      1.0  0.83420  0.41975  0.56953  1.0000
  I   I175      1.0  0.63051  0.54157  0.10833  1.0000
  I   I176      1.0  0.84181  0.14561  0.24169  1.0000
  I   I177      1.0  0.88117  0.39524  0.97986  1.0000
  I   I178      1.0  0.08402  0.68887  0.21675  1.0000
  I   I179      1.0  0.67098  0.60966  0.87161  1.0000
  I   I180      1.0  0.15651  0.53828  0.89802  1.0000
  I   I181      1.0  0.65536  0.32026  0.11028  1.0000
  I   I182      1.0  0.50400  0.31971  0.36359  1.0000
  I   I183      1.0  0.46524  0.57567  0.07663  1.0000
  I   I184      1.0  0.22043  0.02375  0.67127  1.0000
  I   I185      1.0  0.65782  0.30882  0.77719  1.0000
  I   I186      1.0  0.45332  0.70718  0.86360  1.0000
  I   I187      1.0  0.76219  0.23376  0.86467  1.0000
  I   I188      1.0  0.90467  0.46908  0.17678  1.0000
  I   I189      1.0  0.01160  0.44381  0.29655  1.0000
  I   I190      1.0  0.60167  0.16459  0.49444  1.0000
  I   I191      1.0  0.46959  0.16957  0.34467  1.0000
  I   I192      1.0  0.48057  0.32404  0.98356  1.0000
  I   I193      1.0  0.94172  0.59524  0.06962  1.0000
  I   I194      1.0  0.83086  0.03205  0.12815  1.0000
  I   I195      1.0  0.87910  0.59871  0.36891  1.0000
  I   I196      1.0  0.29808  0.15791  0.44683  1.0000
  I   I197      1.0  0.92079  0.18876  0.14790  1.0000
  I   I198      1.0  0.07362  0.24631  0.41781  1.0000
  I   I199      1.0  0.92304  0.86743  0.54052  1.0000
  I   I200      1.0  0.94925  0.02707  0.73359  1.0000
  I   I201      1.0  0.86051  0.93606  0.79819  1.0000
  I   I202      1.0  0.34776  0.92721  0.06332  1.0000
  I   I203      1.0  0.28518  0.54619  0.76440  1.0000
  I   I204      1.0  0.85908  0.77096  0.57552  1.0000
  I   I205      1.0  0.39653  0.32974  0.45644  1.0000
  I   I206      1.0  0.24363  0.29694  0.47176  1.0000
  I   I207      1.0  0.22702  0.09066  0.02383  1.0000
  I   I208      1.0  0.20792  0.77042  0.33390  1.0000
  I   I209      1.0  0.22236  0.70712  0.95003  1.0000
  I   I210      1.0  0.12673  0.32908  0.13457  1.0000
  I   I211      1.0  0.62699  0.69800  0.33773  1.0000
  I   I212      1.0  0.71057  0.82959  0.01428  1.0000
  I   I213      1.0  0.30653  0.47851  0.93995  1.0000
  I   I214      1.0  0.53604  0.05697  0.57970  1.0000
  I   I215      1.0  0.59928  0.88646  0.91903  1.0000
  I   I216      1.0  0.56985  0.85366  0.45610  1.0000
  I   I217      1.0  0.29139  0.17195  0.94298  1.0000
  I   I218      1.0  0.23897  0.32548  0.76931  1.0000
  I   I219      1.0  0.29242  0.53678  0.40571  1.0000
  I   I220      1.0  0.57344  0.56543  0.65045  1.0000
  I   I221      1.0  0.74180  0.35506  0.52953  1.0000
  I   I222      1.0  0.80506  0.49700  0.54313  1.0000
  I   I223      1.0  0.54512  0.57880  0.07901  1.0000
  I   I224      1.0  0.81068  0.21536  0.45599  1.0000
  I   I225      1.0  0.90840  0.39302  0.14128  1.0000
  I   I226      1.0  0.00841  0.79283  0.23920  1.0000
  I   I227      1.0  0.68378  0.54870  0.77522  1.0000
  I   I228      1.0  0.13214  0.50537  0.79945  1.0000
  I   I229      1.0  0.73229  0.22409  0.16453  1.0000
  I   I230      1.0  0.52601  0.37120  0.41385  1.0000
  I   I231      1.0  0.38698  0.71665  0.15226  1.0000
  I   I232      1.0  0.27879  0.94867  0.62154  1.0000
  I   I233      1.0  0.52698  0.42901  0.63001  1.0000
  I   I234      1.0  0.41937  0.68246  0.97017  1.0000
  I   I235      1.0  0.83482  0.10132  0.87653  1.0000
  I   I236      1.0  0.87830  0.43952  0.28094  1.0000
  I   I237      1.0  0.00674  0.52340  0.29314  1.0000
  I   I238      1.0  0.52579  0.19479  0.51254  1.0000
  I   I239      1.0  0.51492  0.16989  0.22846  1.0000
  I   I240      1.0  0.52383  0.24999  0.90037  1.0000
  I   I241      1.0  0.88952  0.65638  0.14172  1.0000
  I   I242      1.0  0.89350  0.01755  0.04326  1.0000
  I   I243      1.0  0.88210  0.66032  0.44853  1.0000
  I   I244      1.0  0.35473  0.07897  0.49129  1.0000
  I   I245      1.0  0.02706  0.12201  0.99026  1.0000
  I   I246      1.0  0.12129  0.21800  0.52529  1.0000
  I   I247      1.0  0.00052  0.89933  0.52941  1.0000
  I   I248      1.0  0.04468  0.98808  0.60317  1.0000
  I   I249      1.0  0.78830  0.94878  0.83984  1.0000
  I   I250      1.0  0.38896  0.86836  0.14482  1.0000
  I   I251      1.0  0.30096  0.56558  0.88818  1.0000
  I   I252      1.0  0.84733  0.72480  0.82407  1.0000
  I   I253      1.0  0.43699  0.34988  0.54284  1.0000
  I   I254      1.0  0.36740  0.25893  0.26469  1.0000
  I   I255      1.0  0.24137  0.09514  0.17570  1.0000
  I   I256      1.0  0.14345  0.76378  0.31253  1.0000
  I   I257      1.0  0.20702  0.65219  0.01008  1.0000
  I   I258      1.0  0.20871  0.34510  0.12644  1.0000
  I   I259      1.0  0.68484  0.63620  0.35703  1.0000
  I   I260      1.0  0.82465  0.81421  0.11599  1.0000
  I   I261      1.0  0.19499  0.47845  0.08185  1.0000
  I   I262      1.0  0.46012  0.08201  0.52655  1.0000
  I   I263      1.0  0.53264  0.95871  0.88669  1.0000
  I   I264      1.0  0.55313  0.86396  0.59351  1.0000
  I   I265      1.0  0.34494  0.15220  0.84645  1.0000
  I   I266      1.0  0.17206  0.37474  0.70042  1.0000
  I   I267      1.0  0.23091  0.49302  0.46075  1.0000
  I   I268      1.0  0.48022  0.58539  0.56768  1.0000
  I   I269      1.0  0.68687  0.43835  0.54412  1.0000
  I   I270      1.0  0.87943  0.45124  0.58805  1.0000
  I   I271      1.0  0.54006  0.50248  0.10308  1.0000
  I   I272      1.0  0.89016  0.14661  0.43946  1.0000
  I   I273      1.0  0.90017  0.43255  0.91298  1.0000
  I   I274      1.0  0.08000  0.74938  0.29675  1.0000
  I   I275      1.0  0.74003  0.55434  0.88848  1.0000
  I   I276      1.0  0.12746  0.50753  0.99561  1.0000
  I   I277      1.0  0.64825  0.25725  0.12359  1.0000
  I   I278      1.0  0.51984  0.31843  0.23239  1.0000
  I   I279      1.0  0.40454  0.63710  0.10030  1.0000
  I   I280      1.0  0.32417  0.97783  0.65682  1.0000
  I   I281      1.0  0.53541  0.36241  0.63318  1.0000
  I   I282      1.0  0.48833  0.76553  0.07283  1.0000
  I   I283      1.0  0.85639  0.14064  0.78330  1.0000
  I   I284      1.0  0.85502  0.51768  0.26159  1.0000
  I   I285      1.0  0.07335  0.46952  0.32706  1.0000
  I   I286      1.0  0.61167  0.10254  0.54923  1.0000
  I   I287      1.0  0.44463  0.19601  0.17417  1.0000
  I   I288      1.0  0.53148  0.30040  0.84538  1.0000
  I   I289      1.0  0.92505  0.60424  0.23114  1.0000
  I   I290      1.0  0.80192  0.95557  0.06889  1.0000
  I   I291      1.0  0.92615  0.06023  0.12728  1.0000
  I   I292      1.0  0.28694  0.07142  0.49941  1.0000
  I   I293      1.0  0.96814  0.10742  0.02938  1.0000
  I   I294      1.0  0.07921  0.19704  0.66369  1.0000
  I   I295      1.0  0.03064  0.85277  0.64608  1.0000
  I   I296      1.0  0.97523  0.99737  0.58717  1.0000
  I   I297      1.0  0.75713  0.06541  0.65348  1.0000
  I   I298      1.0  0.17382  0.87653  0.17776  1.0000
  I   I299      1.0  0.45299  0.93523  0.25667  1.0000
  I   I300      1.0  0.88838  0.70023  0.68659  1.0000
  I   I301      1.0  0.30878  0.00656  0.93108  1.0000
  I   I302      1.0  0.36956  0.34780  0.61443  1.0000
  I   I303      1.0  0.31504  0.31112  0.35823  1.0000
  I   I304      1.0  0.13625  0.38161  0.16788  1.0000
  I   I305      1.0  0.19294  0.70478  0.07957  1.0000
  I   I306      1.0  0.24694  0.76927  0.76178  1.0000
  I   I307      1.0  0.61527  0.64124  0.38305  1.0000
  I   I308      1.0  0.78547  0.77642  0.16187  1.0000
  I   I309      1.0  0.32319  0.40482  0.00723  1.0000
  I   I310      1.0  0.50361  0.94071  0.56949  1.0000
  I   I311      1.0  0.64899  0.95763  0.73689  1.0000
  I   I312      1.0  0.51819  0.01162  0.02457  1.0000
  I   I313      1.0  0.20515  0.57233  0.38779  1.0000
  I   I314      1.0  0.24953  0.20139  0.66135  1.0000
  I   I315      1.0  0.17566  0.42348  0.60430  1.0000
  I   I316      1.0  0.88374  0.48564  0.77148  1.0000
  I   I317      1.0  0.47097  0.51542  0.69523  1.0000
  I   I318      1.0  0.81248  0.39318  0.67448  1.0000
  I   I319      1.0  0.84832  0.44741  0.06440  1.0000
  I   I320      1.0  0.60087  0.57592  0.22684  1.0000
  I   I321      1.0  0.85866  0.19856  0.34017  1.0000
  I   I322      1.0  0.05206  0.63865  0.20929  1.0000
  I   I323      1.0  0.75196  0.57999  0.00642  1.0000
  I   I324      1.0  0.02853  0.56496  0.80116  1.0000
  I   I325      1.0  0.68425  0.37351  0.15480  1.0000
  I   I326      1.0  0.57227  0.34844  0.29422  1.0000
  I   I327      1.0  0.33263  0.69191  0.13762  1.0000
  I   I328      1.0  0.37956  0.89730  0.70537  1.0000
  I   I329      1.0  0.63650  0.37108  0.67732  1.0000
  I   I330      1.0  0.48938  0.70574  0.02008  1.0000
  I   I331      1.0  0.08227  0.53114  0.32752  1.0000
  I   I332      1.0  0.81385  0.17231  0.93336  1.0000
  I   I333      1.0  0.98424  0.41362  0.39721  1.0000
  I   I334      1.0  0.45326  0.41227  0.96430  1.0000
  I   I335      1.0  0.60667  0.04080  0.48913  1.0000
  I   I336      1.0  0.42165  0.15330  0.22484  1.0000
  I   I337      1.0  0.92686  0.55108  0.14615  1.0000
  I   I338      1.0  0.76217  0.01976  0.17943  1.0000
  I   I339      1.0  0.86388  0.07396  0.21990  1.0000
  I   I340      1.0  0.26899  0.06880  0.63229  1.0000
  I   I341      1.0  0.91110  0.25651  0.06967  1.0000
  I   I342      1.0  0.12122  0.15188  0.54221  1.0000
  I   I343      1.0  0.94288  0.92880  0.63784  1.0000
  I   I344      1.0  0.02841  0.05831  0.55100  1.0000
  I   I345      1.0  0.74189  0.02927  0.76595  1.0000
  I   I346      1.0  0.25394  0.86589  0.14221  1.0000
  I   I347      1.0  0.46839  0.86009  0.26136  1.0000
  I   I348      1.0  0.93089  0.73363  0.64286  1.0000
  I   I349      1.0  0.29260  0.04590  0.05717  1.0000
  I   I350      1.0  0.46302  0.29174  0.68240  1.0000
  I   I351      1.0  0.34560  0.21929  0.36373  1.0000
  I   I352      1.0  0.18125  0.30609  0.01883  1.0000
  I   I353      1.0  0.17919  0.69954  0.24264  1.0000
  I   I354      1.0  0.20970  0.76673  0.63306  1.0000
  I   I355      1.0  0.67363  0.70462  0.44674  1.0000
  I   I356      1.0  0.77076  0.85118  0.23392  1.0000
  I   I357      1.0  0.23332  0.49443  0.95249  1.0000
  I   I358      1.0  0.50421  0.93817  0.41603  1.0000
  I   I359      1.0  0.67181  0.87726  0.72229  1.0000
  I   I360      1.0  0.48609  0.03312  0.86739  1.0000
  I   I361      1.0  0.25165  0.50784  0.32867  1.0000
  I   I362      1.0  0.30965  0.20704  0.69530  1.0000
  I   I363      1.0  0.11551  0.40299  0.60145  1.0000
  I   I364      1.0  0.90030  0.50135  0.63819  1.0000
  I   I365      1.0  0.54697  0.54244  0.51661  1.0000
  I   I366      1.0  0.74331  0.41625  0.64075  1.0000
  I   I367      1.0  0.84417  0.51258  0.96517  1.0000
  I   I368      1.0  0.62341  0.48239  0.13908  1.0000
  I   I369      1.0  0.90407  0.12901  0.29014  1.0000
  I   I370      1.0  0.99576  0.68835  0.14093  1.0000
  I   I371      1.0  0.67916  0.57747  0.98756  1.0000
  I   I372      1.0  0.08004  0.53318  0.89912  1.0000
  I   I373      1.0  0.71324  0.25882  0.04437  1.0000
  I   I374      1.0  0.57144  0.30022  0.39592  1.0000
  I   I375      1.0  0.47748  0.56560  0.23567  1.0000
  I   I376      1.0  0.27486  0.00367  0.77280  1.0000
  I   I377      1.0  0.59837  0.36101  0.55716  1.0000
  I   I378      1.0  0.41708  0.74981  0.02064  1.0000
  I   I379      1.0  0.02798  0.56372  0.22949  1.0000
  I   I380      1.0  0.82492  0.25130  0.90663  1.0000
  I   I381      1.0  0.90228  0.47729  0.38096  1.0000
  I   I382      1.0  0.46008  0.35633  0.87271  1.0000
  I   I383      1.0  0.55250  0.10425  0.64438  1.0000
  I   I384      1.0  0.43700  0.18097  0.03619  1.0000
