data_image0
_chemical_formula_structural       Ti96I384
_chemical_formula_sum              "Ti96 I384"
_cell_length_a       42.7389
_cell_length_b       42.6227
_cell_length_c       22.4304
_cell_angle_alpha    88.7757
_cell_angle_beta     88.7757
_cell_angle_gamma    62.1586

_space_group_name_H-M_alt    "P 1"
_space_group_IT_number       1

loop_
  _space_group_symop_operation_xyz
  'x, y, z'

loop_
  _atom_site_type_symbol
  _atom_site_label
  _atom_site_symmetry_multiplicity
  _atom_site_fract_x
  _atom_site_fract_y
  _atom_site_fract_z
  _atom_site_occupancy
  Ti  Ti1       1.0  0.27928  0.09138  0.98345  1.0000
  Ti  Ti2       1.0  0.15358  0.11255  0.35854  1.0000
  Ti  Ti3       1.0  0.25248  0.08923  0.63498  1.0000
  Ti  Ti4       1.0  0.19163  0.36936  0.16329  1.0000
  Ti  Ti5       1.0  0.17909  0.35583  0.46662  1.0000
  Ti  Ti6       1.0  0.18362  0.35315  0.81152  1.0000
  Ti  Ti7       1.0  0.07762  0.64879  0.47439  1.0000
  Ti  Ti8       1.0  0.08027  0.65722  0.79380  1.0000
  Ti  Ti9       1.0  0.09052  0.64373  0.13617  1.0000
  Ti  Ti10      1.0  0.11761  0.87687  0.25087  1.0000
  Ti  Ti11      1.0  0.08809  0.87147  0.58490  1.0000
  Ti  Ti12      1.0  0.09382  0.86395  0.91862  1.0000
  Ti  Ti13      1.0  0.53607  0.01656  0.28892  1.0000
  Ti  Ti14      1.0  0.54231  0.04680  0.60468  1.0000
  Ti  Ti15      1.0  0.55941  0.03515  0.94868  1.0000
  Ti  Ti16      1.0  0.35056  0.41933  0.44252  1.0000
  Ti  Ti17      1.0  0.34680  0.41976  0.77327  1.0000
  Ti  Ti18      1.0  0.35761  0.39409  0.10185  1.0000
  Ti  Ti19      1.0  0.39067  0.64958  0.52646  1.0000
  Ti  Ti20      1.0  0.35158  0.63407  0.94602  1.0000
  Ti  Ti21      1.0  0.32707  0.64682  0.26835  1.0000
  Ti  Ti22      1.0  0.30481  0.87570  0.86838  1.0000
  Ti  Ti23      1.0  0.40861  0.82870  0.37911  1.0000
  Ti  Ti24      1.0  0.48269  0.74485  0.69974  1.0000
  Ti  Ti25      1.0  0.63355  0.19926  0.37352  1.0000
  Ti  Ti26      1.0  0.62421  0.21448  0.74373  1.0000
  Ti  Ti27      1.0  0.60180  0.21139  0.07144  1.0000
  Ti  Ti28      1.0  0.63205  0.39217  0.14181  1.0000
  Ti  Ti29      1.0  0.64068  0.37569  0.48053  1.0000
  Ti  Ti30      1.0  0.60789  0.41234  0.80983  1.0000
  Ti  Ti31      1.0  0.69549  0.55449  0.10665  1.0000
  Ti  Ti32      1.0  0.71774  0.53317  0.41355  1.0000
  Ti  Ti33      1.0  0.73565  0.50274  0.76783  1.0000
  Ti  Ti34      1.0  0.73442  0.76786  0.30217  1.0000
  Ti  Ti35      1.0  0.70922  0.77476  0.63913  1.0000
  Ti  Ti36      1.0  0.71609  0.75537  0.96888  1.0000
  Ti  Ti37      1.0  0.86463  0.08379  0.28983  1.0000
  Ti  Ti38      1.0  0.84297  0.06881  0.62619  1.0000
  Ti  Ti39      1.0  0.83684  0.09511  0.95887  1.0000
  Ti  Ti40      1.0  0.92712  0.29635  0.07431  1.0000
  Ti  Ti41      1.0  0.91766  0.29525  0.40529  1.0000
  Ti  Ti42      1.0  0.93442  0.28624  0.73655  1.0000
  Ti  Ti43      1.0  0.92238  0.54354  0.26532  1.0000
  Ti  Ti44      1.0  0.91100  0.53242  0.62650  1.0000
  Ti  Ti45      1.0  0.91959  0.53087  0.95171  1.0000
  Ti  Ti46      1.0  0.83899  0.88654  0.23804  1.0000
  Ti  Ti47      1.0  0.83210  0.89236  0.57538  1.0000
  Ti  Ti48      1.0  0.83081  0.88533  0.91140  1.0000
  Ti  Ti49      1.0  0.23465  0.12272  0.83362  1.0000
  Ti  Ti50      1.0  0.07889  0.14570  0.23448  1.0000
  Ti  Ti51      1.0  0.14506  0.11934  0.54013  1.0000
  Ti  Ti52      1.0  0.13284  0.41539  0.98066  1.0000
  Ti  Ti53      1.0  0.12518  0.43695  0.31919  1.0000
  Ti  Ti54      1.0  0.11391  0.41094  0.66193  1.0000
  Ti  Ti55      1.0  0.01660  0.70506  0.28640  1.0000
  Ti  Ti56      1.0  0.02227  0.72339  0.63555  1.0000
  Ti  Ti57      1.0  0.03714  0.71195  0.96849  1.0000
  Ti  Ti58      1.0  0.03303  0.92352  0.09159  1.0000
  Ti  Ti59      1.0  0.04204  0.91603  0.40731  1.0000
  Ti  Ti60      1.0  0.02429  0.91652  0.74831  1.0000
  Ti  Ti61      1.0  0.49096  0.07319  0.11185  1.0000
  Ti  Ti62      1.0  0.47562  0.07922  0.45156  1.0000
  Ti  Ti63      1.0  0.48983  0.09760  0.79767  1.0000
  Ti  Ti64      1.0  0.30195  0.46878  0.26971  1.0000
  Ti  Ti65      1.0  0.29534  0.47700  0.59606  1.0000
  Ti  Ti66      1.0  0.28118  0.50270  0.91159  1.0000
  Ti  Ti67      1.0  0.28552  0.67308  0.45454  1.0000
  Ti  Ti68      1.0  0.30077  0.65827  0.76634  1.0000
  Ti  Ti69      1.0  0.28066  0.68756  0.09776  1.0000
  Ti  Ti70      1.0  0.39145  0.81172  0.78802  1.0000
  Ti  Ti71      1.0  0.29331  0.90508  0.33748  1.0000
  Ti  Ti72      1.0  0.42080  0.90984  0.44895  1.0000
  Ti  Ti73      1.0  0.54302  0.24842  0.23807  1.0000
  Ti  Ti74      1.0  0.57202  0.23057  0.55940  1.0000
  Ti  Ti75      1.0  0.55366  0.23503  0.88176  1.0000
  Ti  Ti76      1.0  0.56393  0.46001  0.98256  1.0000
  Ti  Ti77      1.0  0.57059  0.43522  0.32760  1.0000
  Ti  Ti78      1.0  0.58230  0.44678  0.63336  1.0000
  Ti  Ti79      1.0  0.66326  0.58907  0.91458  1.0000
  Ti  Ti80      1.0  0.61372  0.64942  0.22824  1.0000
  Ti  Ti81      1.0  0.68905  0.53364  0.59150  1.0000
  Ti  Ti82      1.0  0.68054  0.82173  0.13540  1.0000
  Ti  Ti83      1.0  0.65575  0.82586  0.47061  1.0000
  Ti  Ti84      1.0  0.65119  0.82036  0.80525  1.0000
  Ti  Ti85      1.0  0.83245  0.14832  0.11542  1.0000
  Ti  Ti86      1.0  0.83005  0.14201  0.46015  1.0000
  Ti  Ti87      1.0  0.82115  0.14845  0.77619  1.0000
  Ti  Ti88      1.0  0.87638  0.34002  0.89991  1.0000
  Ti  Ti89      1.0  0.86600  0.35896  0.23338  1.0000
  Ti  Ti90      1.0  0.86129  0.34333  0.58324  1.0000
  Ti  Ti91      1.0  0.85840  0.59606  0.09488  1.0000
  Ti  Ti92      1.0  0.87363  0.59558  0.45580  1.0000
  Ti  Ti93      1.0  0.85628  0.58358  0.78525  1.0000
  Ti  Ti94      1.0  0.76901  0.94041  0.06474  1.0000
  Ti  Ti95      1.0  0.77774  0.93695  0.40834  1.0000
  Ti  Ti96      1.0  0.76449  0.93798  0.74621  1.0000
  I   I1        1.0  0.07913  0.15759  0.11600  1.0000
  I   I2        1.0  0.14691  0.07596  0.45186  1.0000
  I   I3        1.0  0.21194  0.09632  0.74196  1.0000
  I   I4        1.0  0.11551  0.40173  0.21583  1.0000
  I   I5        1.0  0.10752  0.37997  0.56201  1.0000
  I   I6        1.0  0.11497  0.38638  0.88388  1.0000
  I   I7        1.0  0.00695  0.68703  0.53304  1.0000
  I   I8        1.0  0.02792  0.67378  0.88824  1.0000
  I   I9        1.0  0.01495  0.67919  0.18142  1.0000
  I   I10       1.0  0.05145  0.88009  0.29720  1.0000
  I   I11       1.0  0.02238  0.88189  0.65643  1.0000
  I   I12       1.0  0.02577  0.87968  0.00340  1.0000
  I   I13       1.0  0.45460  0.05285  0.35482  1.0000
  I   I14       1.0  0.47883  0.06484  0.69706  1.0000
  I   I15       1.0  0.50221  0.03380  0.01577  1.0000
  I   I16       1.0  0.27652  0.44830  0.49138  1.0000
  I   I17       1.0  0.27233  0.46318  0.82303  1.0000
  I   I18       1.0  0.29428  0.43269  0.17801  1.0000
  I   I19       1.0  0.31229  0.61726  0.67112  1.0000
  I   I20       1.0  0.28272  0.63726  0.01210  1.0000
  I   I21       1.0  0.27631  0.64407  0.35500  1.0000
  I   I22       1.0  0.26492  0.95205  0.42260  1.0000
  I   I23       1.0  0.36164  0.90393  0.36031  1.0000
  I   I24       1.0  0.39683  0.78518  0.67616  1.0000
  I   I25       1.0  0.57435  0.19116  0.46401  1.0000
  I   I26       1.0  0.57995  0.18212  0.79282  1.0000
  I   I27       1.0  0.53834  0.22046  0.12131  1.0000
  I   I28       1.0  0.57140  0.40163  0.22836  1.0000
  I   I29       1.0  0.57632  0.40088  0.54863  1.0000
  I   I30       1.0  0.54258  0.44045  0.87179  1.0000
  I   I31       1.0  0.61895  0.60253  0.12491  1.0000
  I   I32       1.0  0.67531  0.50572  0.49154  1.0000
  I   I33       1.0  0.66445  0.54159  0.83321  1.0000
  I   I34       1.0  0.66490  0.79059  0.35834  1.0000
  I   I35       1.0  0.63630  0.80248  0.70211  1.0000
  I   I36       1.0  0.65216  0.79487  0.05338  1.0000
  I   I37       1.0  0.80244  0.14639  0.34535  1.0000
  I   I38       1.0  0.79057  0.13350  0.68407  1.0000
  I   I39       1.0  0.79503  0.16322  0.00267  1.0000
  I   I40       1.0  0.85070  0.33636  0.13373  1.0000
  I   I41       1.0  0.85109  0.32506  0.46950  1.0000
  I   I42       1.0  0.86282  0.31785  0.78944  1.0000
  I   I43       1.0  0.85675  0.57822  0.33894  1.0000
  I   I44       1.0  0.83858  0.57136  0.67623  1.0000
  I   I45       1.0  0.84951  0.56215  0.00442  1.0000
  I   I46       1.0  0.77586  0.89556  0.32436  1.0000
  I   I47       1.0  0.75694  0.91988  0.63274  1.0000
  I   I48       1.0  0.76381  0.90312  0.98107  1.0000
  I   I49       1.0  0.27517  0.14445  0.89695  1.0000
  I   I50       1.0  0.08104  0.13474  0.37125  1.0000
  I   I51       1.0  0.17976  0.15011  0.60347  1.0000
  I   I52       1.0  0.17096  0.42515  0.07283  1.0000
  I   I53       1.0  0.15813  0.43458  0.42578  1.0000
  I   I54       1.0  0.15627  0.41886  0.74511  1.0000
  I   I55       1.0  0.05257  0.71341  0.39341  1.0000
  I   I56       1.0  0.04088  0.73195  0.74154  1.0000
  I   I57       1.0  0.07256  0.71283  0.06405  1.0000
  I   I58       1.0  0.04850  0.95822  0.17186  1.0000
  I   I59       1.0  0.04610  0.93914  0.51746  1.0000
  I   I60       1.0  0.04747  0.92624  0.85996  1.0000
  I   I61       1.0  0.50231  0.08317  0.22628  1.0000
  I   I62       1.0  0.50419  0.10777  0.53890  1.0000
  I   I63       1.0  0.51811  0.11220  0.90421  1.0000
  I   I64       1.0  0.34190  0.47573  0.36451  1.0000
  I   I65       1.0  0.32365  0.49191  0.69788  1.0000
  I   I66       1.0  0.31081  0.51737  0.00502  1.0000
  I   I67       1.0  0.31755  0.69303  0.54088  1.0000
  I   I68       1.0  0.29450  0.68802  0.88174  1.0000
  I   I69       1.0  0.28154  0.72027  0.19416  1.0000
  I   I70       1.0  0.38653  0.85644  0.88772  1.0000
  I   I71       1.0  0.42356  0.80870  0.26993  1.0000
  I   I72       1.0  0.47478  0.89624  0.50973  1.0000
  I   I73       1.0  0.57173  0.26785  0.34056  1.0000
  I   I74       1.0  0.57327  0.26745  0.65897  1.0000
  I   I75       1.0  0.54842  0.26929  0.98517  1.0000
  I   I76       1.0  0.58781  0.46886  0.08851  1.0000
  I   I77       1.0  0.60423  0.44251  0.42825  1.0000
  I   I78       1.0  0.58854  0.47365  0.73676  1.0000
  I   I79       1.0  0.69407  0.60607  0.00309  1.0000
  I   I80       1.0  0.63188  0.67908  0.31244  1.0000
  I   I81       1.0  0.71785  0.56031  0.67394  1.0000
  I   I82       1.0  0.70989  0.83963  0.22878  1.0000
  I   I83       1.0  0.67680  0.84255  0.56968  1.0000
  I   I84       1.0  0.69078  0.81979  0.91133  1.0000
  I   I85       1.0  0.87623  0.13911  0.23169  1.0000
  I   I86       1.0  0.86870  0.10773  0.56260  1.0000
  I   I87       1.0  0.86739  0.12363  0.87075  1.0000
  I   I88       1.0  0.89156  0.36211  0.99980  1.0000
  I   I89       1.0  0.89660  0.36564  0.34209  1.0000
  I   I90       1.0  0.90466  0.35070  0.67804  1.0000
  I   I91       1.0  0.89954  0.61152  0.20302  1.0000
  I   I92       1.0  0.89992  0.60447  0.55791  1.0000
  I   I93       1.0  0.88960  0.59824  0.90641  1.0000
  I   I94       1.0  0.80300  0.95532  0.17615  1.0000
  I   I95       1.0  0.79800  0.96246  0.50160  1.0000
  I   I96       1.0  0.79084  0.95095  0.84771  1.0000
  I   I97       1.0  0.27382  0.12734  0.70980  1.0000
  I   I98       1.0  0.24691  0.13204  0.07185  1.0000
  I   I99       1.0  0.16543  0.15364  0.44457  1.0000
  I   I100      1.0  0.20103  0.38348  0.91093  1.0000
  I   I101      1.0  0.19361  0.40323  0.26403  1.0000
  I   I102      1.0  0.19244  0.37675  0.58249  1.0000
  I   I103      1.0  0.10200  0.66775  0.24421  1.0000
  I   I104      1.0  0.08711  0.68880  0.56344  1.0000
  I   I105      1.0  0.10517  0.67860  0.88418  1.0000
  I   I106      1.0  0.08994  0.91018  0.01266  1.0000
  I   I107      1.0  0.10500  0.91403  0.35972  1.0000
  I   I108      1.0  0.08525  0.91613  0.68907  1.0000
  I   I109      1.0  0.55988  0.05931  0.06318  1.0000
  I   I110      1.0  0.54400  0.04783  0.40184  1.0000
  I   I111      1.0  0.55405  0.07124  0.70922  1.0000
  I   I112      1.0  0.37690  0.41992  0.19356  1.0000
  I   I113      1.0  0.36029  0.45952  0.52360  1.0000
  I   I114      1.0  0.35850  0.45323  0.86294  1.0000
  I   I115      1.0  0.34191  0.67269  0.36629  1.0000
  I   I116      1.0  0.41454  0.62968  0.63683  1.0000
  I   I117      1.0  0.34380  0.67825  0.03463  1.0000
  I   I118      1.0  0.44713  0.74132  0.81449  1.0000
  I   I119      1.0  0.28887  0.93888  0.89805  1.0000
  I   I120      1.0  0.46355  0.84504  0.38410  1.0000
  I   I121      1.0  0.59676  0.25317  0.16139  1.0000
  I   I122      1.0  0.63454  0.23796  0.46260  1.0000
  I   I123      1.0  0.60359  0.25514  0.84116  1.0000
  I   I124      1.0  0.63145  0.43044  0.93082  1.0000
  I   I125      1.0  0.63708  0.41703  0.24834  1.0000
  I   I126      1.0  0.65006  0.41510  0.57665  1.0000
  I   I127      1.0  0.74574  0.54496  0.84844  1.0000
  I   I128      1.0  0.68601  0.60896  0.19702  1.0000
  I   I129      1.0  0.75975  0.50203  0.51729  1.0000
  I   I130      1.0  0.74401  0.78184  0.04961  1.0000
  I   I131      1.0  0.72529  0.80471  0.41620  1.0000
  I   I132      1.0  0.72968  0.79196  0.74377  1.0000
  I   I133      1.0  0.88349  0.09318  0.03899  1.0000
  I   I134      1.0  0.89835  0.08958  0.38180  1.0000
  I   I135      1.0  0.87031  0.07041  0.74236  1.0000
  I   I136      1.0  0.94869  0.31790  0.84023  1.0000
  I   I137      1.0  0.93539  0.32914  0.17197  1.0000
  I   I138      1.0  0.93246  0.32356  0.51069  1.0000
  I   I139      1.0  0.93347  0.55476  0.05310  1.0000
  I   I140      1.0  0.93498  0.56810  0.37675  1.0000
  I   I141      1.0  0.92716  0.56364  0.72785  1.0000
  I   I142      1.0  0.83351  0.93085  0.99935  1.0000
  I   I143      1.0  0.84687  0.91175  0.33602  1.0000
  I   I144      1.0  0.83221  0.92555  0.67685  1.0000
  I   I145      1.0  0.28889  0.05391  0.87377  1.0000
  I   I146      1.0  0.14718  0.08110  0.24888  1.0000
  I   I147      1.0  0.22040  0.05417  0.57732  1.0000
  I   I148      1.0  0.16910  0.35070  0.05501  1.0000
  I   I149      1.0  0.14444  0.36396  0.37079  1.0000
  I   I150      1.0  0.15099  0.34200  0.72450  1.0000
  I   I151      1.0  0.04416  0.64138  0.35711  1.0000
  I   I152      1.0  0.04479  0.65485  0.69526  1.0000
  I   I153      1.0  0.06524  0.63628  0.03503  1.0000
  I   I154      1.0  0.11063  0.85667  0.14202  1.0000
  I   I155      1.0  0.07152  0.84919  0.48368  1.0000
  I   I156      1.0  0.06665  0.84903  0.81589  1.0000
  I   I157      1.0  0.49935  0.00767  0.19408  1.0000
  I   I158      1.0  0.51229  0.01816  0.53448  1.0000
  I   I159      1.0  0.52271  0.02702  0.85414  1.0000
  I   I160      1.0  0.31346  0.40873  0.34228  1.0000
  I   I161      1.0  0.31900  0.40942  0.65573  1.0000
  I   I162      1.0  0.31226  0.40554  0.01037  1.0000
  I   I163      1.0  0.35641  0.60512  0.50656  1.0000
  I   I164      1.0  0.34173  0.59751  0.84912  1.0000
  I   I165      1.0  0.30020  0.62237  0.18619  1.0000
  I   I166      1.0  0.34599  0.79723  0.84679  1.0000
  I   I167      1.0  0.34015  0.83974  0.39085  1.0000
  I   I168      1.0  0.48420  0.75989  0.58685  1.0000
  I   I169      1.0  0.59966  0.18384  0.27719  1.0000
  I   I170      1.0  0.63612  0.17909  0.61476  1.0000
  I   I171      1.0  0.60660  0.16986  0.97306  1.0000
  I   I172      1.0  0.59216  0.38626  0.03530  1.0000
  I   I173      1.0  0.61203  0.36337  0.37471  1.0000
  I   I174      1.0  0.58385  0.38614  0.71748  1.0000
  I   I175      1.0  0.67441  0.53468  0.00788  1.0000
  I   I176      1.0  0.65880  0.56657  0.34302  1.0000
  I   I177      1.0  0.69718  0.48305  0.68291  1.0000
  I   I178      1.0  0.71851  0.75010  0.19974  1.0000
  I   I179      1.0  0.69207  0.75281  0.52572  1.0000
  I   I180      1.0  0.68663  0.75122  0.85683  1.0000
  I   I181      1.0  0.81366  0.10161  0.17870  1.0000
  I   I182      1.0  0.80286  0.09310  0.51363  1.0000
  I   I183      1.0  0.79693  0.10883  0.85825  1.0000
  I   I184      1.0  0.90745  0.27182  0.97214  1.0000
  I   I185      1.0  0.90114  0.28432  0.29650  1.0000
  I   I186      1.0  0.89309  0.27701  0.62568  1.0000
  I   I187      1.0  0.88392  0.53803  0.17298  1.0000
  I   I188      1.0  0.89156  0.52033  0.51564  1.0000
  I   I189      1.0  0.88944  0.51349  0.83606  1.0000
  I   I190      1.0  0.80853  0.87499  0.12757  1.0000
  I   I191      1.0  0.82225  0.86100  0.46898  1.0000
  I   I192      1.0  0.81712  0.86009  0.81361  1.0000
  I   I193      1.0  0.34646  0.08095  0.99279  1.0000
  I   I194      1.0  0.13320  0.16860  0.28328  1.0000
  I   I195      1.0  0.27713  0.10618  0.54131  1.0000
  I   I196      1.0  0.25654  0.33973  0.11881  1.0000
  I   I197      1.0  0.23778  0.34592  0.41523  1.0000
  I   I198      1.0  0.24716  0.32862  0.76116  1.0000
  I   I199      1.0  0.13862  0.61875  0.41733  1.0000
  I   I200      1.0  0.13651  0.65642  0.73427  1.0000
  I   I201      1.0  0.15893  0.62552  0.10983  1.0000
  I   I202      1.0  0.16079  0.90421  0.22659  1.0000
  I   I203      1.0  0.15003  0.85740  0.54554  1.0000
  I   I204      1.0  0.15640  0.84941  0.87458  1.0000
  I   I205      1.0  0.60177  0.98571  0.24217  1.0000
  I   I206      1.0  0.60208  0.04254  0.55360  1.0000
  I   I207      1.0  0.61681  0.03268  0.89566  1.0000
  I   I208      1.0  0.41709  0.38838  0.40764  1.0000
  I   I209      1.0  0.41020  0.38816  0.72305  1.0000
  I   I210      1.0  0.40162  0.40393  0.03188  1.0000
  I   I211      1.0  0.39377  0.70866  0.50045  1.0000
  I   I212      1.0  0.41107  0.62265  0.88763  1.0000
  I   I213      1.0  0.37733  0.64914  0.21245  1.0000
  I   I214      1.0  0.29522  0.85829  0.97676  1.0000
  I   I215      1.0  0.44156  0.76564  0.42747  1.0000
  I   I216      1.0  0.54293  0.74324  0.72019  1.0000
  I   I217      1.0  0.68502  0.20337  0.32657  1.0000
  I   I218      1.0  0.66761  0.23869  0.70430  1.0000
  I   I219      1.0  0.65430  0.22046  0.02056  1.0000
  I   I220      1.0  0.68543  0.39874  0.09765  1.0000
  I   I221      1.0  0.69705  0.36541  0.41245  1.0000
  I   I222      1.0  0.66929  0.39094  0.75848  1.0000
  I   I223      1.0  0.76521  0.52776  0.09711  1.0000
  I   I224      1.0  0.75328  0.56172  0.36688  1.0000
  I   I225      1.0  0.78997  0.48250  0.69405  1.0000
  I   I226      1.0  0.79797  0.76176  0.28884  1.0000
  I   I227      1.0  0.76827  0.76319  0.58953  1.0000
  I   I228      1.0  0.77662  0.72370  0.91584  1.0000
  I   I229      1.0  0.91949  0.03289  0.22654  1.0000
  I   I230      1.0  0.89697  0.01061  0.58668  1.0000
  I   I231      1.0  0.88029  0.03236  0.91594  1.0000
  I   I232      1.0  0.99081  0.26442  0.03292  1.0000
  I   I233      1.0  0.98565  0.27655  0.38090  1.0000
  I   I234      1.0  0.99235  0.26782  0.68462  1.0000
  I   I235      1.0  0.98447  0.52238  0.21673  1.0000
  I   I236      1.0  0.97745  0.50340  0.59482  1.0000
  I   I237      1.0  0.97788  0.50184  0.89680  1.0000
  I   I238      1.0  0.89325  0.88250  0.18192  1.0000
  I   I239      1.0  0.88958  0.88608  0.52899  1.0000
  I   I240      1.0  0.88837  0.88578  0.87788  1.0000
  I   I241      1.0  0.28462  0.03683  0.04626  1.0000
  I   I242      1.0  0.22124  0.08472  0.32145  1.0000
  I   I243      1.0  0.31006  0.03176  0.65286  1.0000
  I   I244      1.0  0.19259  0.31223  0.21426  1.0000
  I   I245      1.0  0.19639  0.29168  0.50781  1.0000
  I   I246      1.0  0.20533  0.29724  0.88245  1.0000
  I   I247      1.0  0.09212  0.58766  0.51971  1.0000
  I   I248      1.0  0.11139  0.59064  0.81870  1.0000
  I   I249      1.0  0.10924  0.57878  0.18738  1.0000
  I   I250      1.0  0.16781  0.81627  0.29522  1.0000
  I   I251      1.0  0.11522  0.81364  0.64346  1.0000
  I   I252      1.0  0.12080  0.79992  0.96758  1.0000
  I   I253      1.0  0.54912  0.95700  0.33333  1.0000
  I   I254      1.0  0.58208  0.97863  0.63943  1.0000
  I   I255      1.0  0.59382  0.96432  0.96551  1.0000
  I   I256      1.0  0.36208  0.35695  0.49557  1.0000
  I   I257      1.0  0.34067  0.36828  0.83060  1.0000
  I   I258      1.0  0.37587  0.32758  0.13075  1.0000
  I   I259      1.0  0.45475  0.60398  0.48806  1.0000
  I   I260      1.0  0.37380  0.57115  0.00392  1.0000
  I   I261      1.0  0.36704  0.57806  0.30019  1.0000
  I   I262      1.0  0.24648  0.88307  0.83454  1.0000
  I   I263      1.0  0.40477  0.85950  0.50344  1.0000
  I   I264      1.0  0.49717  0.67625  0.69897  1.0000
  I   I265      1.0  0.67181  0.12961  0.40375  1.0000
  I   I266      1.0  0.67536  0.15996  0.78706  1.0000
  I   I267      1.0  0.64674  0.15021  0.11750  1.0000
  I   I268      1.0  0.66378  0.32509  0.16747  1.0000
  I   I269      1.0  0.66431  0.31409  0.53509  1.0000
  I   I270      1.0  0.63256  0.34411  0.85542  1.0000
  I   I271      1.0  0.69397  0.50783  0.17355  1.0000
  I   I272      1.0  0.74335  0.47122  0.36723  1.0000
  I   I273      1.0  0.75092  0.44681  0.83256  1.0000
  I   I274      1.0  0.74859  0.70744  0.36201  1.0000
  I   I275      1.0  0.71908  0.71230  0.67136  1.0000
  I   I276      1.0  0.72085  0.69603  0.01098  1.0000
  I   I277      1.0  0.83596  0.04642  0.32778  1.0000
  I   I278      1.0  0.79634  0.04747  0.66161  1.0000
  I   I279      1.0  0.78942  0.07771  0.00489  1.0000
  I   I280      1.0  0.93462  0.23636  0.12091  1.0000
  I   I281      1.0  0.93549  0.23467  0.44803  1.0000
  I   I282      1.0  0.95404  0.22863  0.79894  1.0000
  I   I283      1.0  0.93339  0.48261  0.30959  1.0000
  I   I284      1.0  0.91620  0.47841  0.67974  1.0000
  I   I285      1.0  0.93007  0.46777  0.00736  1.0000
  I   I286      1.0  0.87000  0.82049  0.25923  1.0000
  I   I287      1.0  0.86080  0.82975  0.63493  1.0000
  I   I288      1.0  0.86122  0.82946  0.98452  1.0000
  I   I289      1.0  0.19786  0.11449  0.93202  1.0000
  I   I290      1.0  0.06264  0.09420  0.23203  1.0000
  I   I291      1.0  0.12266  0.08881  0.61985  1.0000
  I   I292      1.0  0.07588  0.43763  0.04447  1.0000
  I   I293      1.0  0.06490  0.45421  0.36596  1.0000
  I   I294      1.0  0.05449  0.43622  0.72616  1.0000
  I   I295      1.0  0.95284  0.72433  0.32722  1.0000
  I   I296      1.0  0.95402  0.75351  0.66154  1.0000
  I   I297      1.0  0.97031  0.73714  0.99764  1.0000
  I   I298      1.0  0.98490  0.91586  0.15560  1.0000
  I   I299      1.0  0.98200  0.90962  0.42777  1.0000
  I   I300      1.0  0.96446  0.91520  0.77924  1.0000
  I   I301      1.0  0.42403  0.08870  0.12595  1.0000
  I   I302      1.0  0.41749  0.08743  0.50512  1.0000
  I   I303      1.0  0.43225  0.11253  0.85894  1.0000
  I   I304      1.0  0.23644  0.50419  0.31059  1.0000
  I   I305      1.0  0.23453  0.47881  0.63591  1.0000
  I   I306      1.0  0.22007  0.51312  0.95913  1.0000
  I   I307      1.0  0.24949  0.64968  0.52372  1.0000
  I   I308      1.0  0.23609  0.66869  0.77490  1.0000
  I   I309      1.0  0.22267  0.68506  0.13833  1.0000
  I   I310      1.0  0.34478  0.88253  0.76039  1.0000
  I   I311      1.0  0.27607  0.94412  0.24142  1.0000
  I   I312      1.0  0.37155  0.96266  0.50838  1.0000
  I   I313      1.0  0.50061  0.23646  0.30599  1.0000
  I   I314      1.0  0.52470  0.21555  0.61215  1.0000
  I   I315      1.0  0.51164  0.20854  0.92109  1.0000
  I   I316      1.0  0.50562  0.47440  0.03535  1.0000
  I   I317      1.0  0.51582  0.43031  0.38039  1.0000
  I   I318      1.0  0.51093  0.47340  0.63923  1.0000
  I   I319      1.0  0.59218  0.62182  0.93479  1.0000
  I   I320      1.0  0.55599  0.64978  0.26414  1.0000
  I   I321      1.0  0.62343  0.56530  0.62938  1.0000
  I   I322      1.0  0.61662  0.84607  0.19039  1.0000
  I   I323      1.0  0.60044  0.82108  0.50693  1.0000
  I   I324      1.0  0.59438  0.83266  0.86096  1.0000
  I   I325      1.0  0.77753  0.19419  0.16654  1.0000
  I   I326      1.0  0.76869  0.19651  0.48016  1.0000
  I   I327      1.0  0.76805  0.19971  0.83167  1.0000
  I   I328      1.0  0.81451  0.35251  0.95062  1.0000
  I   I329      1.0  0.80770  0.38261  0.28937  1.0000
  I   I330      1.0  0.79546  0.35640  0.61307  1.0000
  I   I331      1.0  0.79478  0.62456  0.13651  1.0000
  I   I332      1.0  0.80618  0.61753  0.47876  1.0000
  I   I333      1.0  0.79243  0.60567  0.82414  1.0000
  I   I334      1.0  0.70879  0.95837  0.12134  1.0000
  I   I335      1.0  0.71745  0.95425  0.46821  1.0000
  I   I336      1.0  0.71378  0.92595  0.78962  1.0000
  I   I337      1.0  0.18661  0.18652  0.79746  1.0000
  I   I338      1.0  0.01547  0.20075  0.25304  1.0000
  I   I339      1.0  0.07647  0.16895  0.52677  1.0000
  I   I340      1.0  0.12529  0.47549  0.93717  1.0000
  I   I341      1.0  0.11240  0.50625  0.29916  1.0000
  I   I342      1.0  0.09888  0.47473  0.62162  1.0000
  I   I343      1.0  0.00909  0.76729  0.26075  1.0000
  I   I344      1.0  0.02041  0.78098  0.59384  1.0000
  I   I345      1.0  0.02235  0.77259  0.92090  1.0000
  I   I346      1.0  0.99040  0.98472  0.03669  1.0000
  I   I347      1.0  0.01403  0.97964  0.35573  1.0000
  I   I348      1.0  0.98758  0.98573  0.74281  1.0000
  I   I349      1.0  0.47072  0.13720  0.06958  1.0000
  I   I350      1.0  0.44780  0.14340  0.40136  1.0000
  I   I351      1.0  0.47411  0.15642  0.74427  1.0000
  I   I352      1.0  0.30349  0.51469  0.19573  1.0000
  I   I353      1.0  0.27260  0.54197  0.54838  1.0000
  I   I354      1.0  0.26391  0.56195  0.85678  1.0000
  I   I355      1.0  0.23443  0.73697  0.43274  1.0000
  I   I356      1.0  0.31187  0.70649  0.71828  1.0000
  I   I357      1.0  0.23633  0.74137  0.02820  1.0000
  I   I358      1.0  0.45298  0.82204  0.75113  1.0000
  I   I359      1.0  0.25687  0.87167  0.30804  1.0000
  I   I360      1.0  0.42486  0.95583  0.37979  1.0000
  I   I361      1.0  0.49248  0.31057  0.20720  1.0000
  I   I362      1.0  0.52393  0.28645  0.51011  1.0000
  I   I363      1.0  0.50922  0.27898  0.80758  1.0000
  I   I364      1.0  0.54602  0.52283  0.93648  1.0000
  I   I365      1.0  0.53953  0.50337  0.29715  1.0000
  I   I366      1.0  0.57307  0.50173  0.56651  1.0000
  I   I367      1.0  0.65347  0.63760  0.83656  1.0000
  I   I368      1.0  0.58322  0.70180  0.15170  1.0000
  I   I369      1.0  0.67867  0.58954  0.50456  1.0000
  I   I370      1.0  0.67391  0.87323  0.06678  1.0000
  I   I371      1.0  0.62125  0.89222  0.43864  1.0000
  I   I372      1.0  0.63494  0.88936  0.77297  1.0000
  I   I373      1.0  0.86132  0.18476  0.06856  1.0000
  I   I374      1.0  0.86269  0.18053  0.45582  1.0000
  I   I375      1.0  0.84992  0.18133  0.71374  1.0000
  I   I376      1.0  0.85617  0.40230  0.85466  1.0000
  I   I377      1.0  0.85663  0.42207  0.20449  1.0000
  I   I378      1.0  0.84435  0.41104  0.54615  1.0000
  I   I379      1.0  0.84174  0.66480  0.06667  1.0000
  I   I380      1.0  0.86187  0.65798  0.41607  1.0000
  I   I381      1.0  0.84567  0.64726  0.77119  1.0000
  I   I382      1.0  0.73568  0.00769  0.02152  1.0000
  I   I383      1.0  0.76164  0.00307  0.36469  1.0000
  I   I384      1.0  0.73011  0.00388  0.72279  1.0000
