data_image0
_chemical_formula_structural       Ti96I384
_chemical_formula_sum              "Ti96 I384"
_cell_length_a       68.7694
_cell_length_b       68.6142
_cell_length_c       33.6334
_cell_angle_alpha    88.7757
_cell_angle_beta     88.7757
_cell_angle_gamma    62.1586

_space_group_name_H-M_alt    "P 1"
_space_group_IT_number       1

loop_
  _space_group_symop_operation_xyz
  'x, y, z'

loop_
  _atom_site_type_symbol
  _atom_site_label
  _atom_site_symmetry_multiplicity
  _atom_site_fract_x
  _atom_site_fract_y
  _atom_site_fract_z
  _atom_site_occupancy
  Ti  Ti1       1.0  0.09170  0.81487  0.84585  1.0000
  Ti  Ti2       1.0  0.97929  0.13728  0.18311  1.0000
  Ti  Ti3       1.0  0.50547  0.98466  0.82358  1.0000
  Ti  Ti4       1.0  0.90529  0.36451  0.29156  1.0000
  Ti  Ti5       1.0  0.41608  0.79838  0.28253  1.0000
  Ti  Ti6       1.0  0.77421  0.90907  0.16367  1.0000
  Ti  Ti7       1.0  0.96275  0.51002  0.56884  1.0000
  Ti  Ti8       1.0  0.17336  0.73568  0.42883  1.0000
  Ti  Ti9       1.0  0.23500  0.05638  0.88360  1.0000
  Ti  Ti10      1.0  0.05432  0.64320  0.50008  1.0000
  Ti  Ti11      1.0  0.24265  0.33283  0.47589  1.0000
  Ti  Ti12      1.0  0.08737  0.61035  0.01950  1.0000
  Ti  Ti13      1.0  0.87623  0.14853  0.52228  1.0000
  Ti  Ti14      1.0  0.00459  0.98616  0.70557  1.0000
  Ti  Ti15      1.0  0.89314  0.86492  0.34379  1.0000
  Ti  Ti16      1.0  0.08794  0.66593  0.49276  1.0000
  Ti  Ti17      1.0  0.29259  0.00119  0.45334  1.0000
  Ti  Ti18      1.0  0.52562  0.82530  0.77117  1.0000
  Ti  Ti19      1.0  0.52615  0.66529  0.67885  1.0000
  Ti  Ti20      1.0  0.26518  0.14728  0.61663  1.0000
  Ti  Ti21      1.0  0.23986  0.72121  0.39651  1.0000
  Ti  Ti22      1.0  0.60193  0.87498  0.34169  1.0000
  Ti  Ti23      1.0  0.40044  0.16969  0.39036  1.0000
  Ti  Ti24      1.0  0.26016  0.75874  0.71468  1.0000
  Ti  Ti25      1.0  0.42535  0.98039  0.37322  1.0000
  Ti  Ti26      1.0  0.31791  0.79640  0.97136  1.0000
  Ti  Ti27      1.0  0.73470  0.20257  0.78093  1.0000
  Ti  Ti28      1.0  0.71104  0.65399  0.18004  1.0000
  Ti  Ti29      1.0  0.05559  0.76059  0.32599  1.0000
  Ti  Ti30      1.0  0.39344  0.93114  0.87525  1.0000
  Ti  Ti31      1.0  0.22647  0.39302  0.18411  1.0000
  Ti  Ti32      1.0  0.05779  0.16805  0.69243  1.0000
  Ti  Ti33      1.0  0.16368  0.87064  0.64398  1.0000
  Ti  Ti34      1.0  0.32758  0.30489  0.30767  1.0000
  Ti  Ti35      1.0  0.71415  0.57548  0.54798  1.0000
  Ti  Ti36      1.0  0.16462  0.06481  0.11997  1.0000
  Ti  Ti37      1.0  0.13235  0.28844  0.40246  1.0000
  Ti  Ti38      1.0  0.39476  0.44856  0.14536  1.0000
  Ti  Ti39      1.0  0.97622  0.52914  0.29474  1.0000
  Ti  Ti40      1.0  0.18700  0.38884  0.68749  1.0000
  Ti  Ti41      1.0  0.46267  0.35836  0.63517  1.0000
  Ti  Ti42      1.0  0.20303  0.02220  0.47586  1.0000
  Ti  Ti43      1.0  0.27751  0.98216  0.09558  1.0000
  Ti  Ti44      1.0  0.75882  0.71751  0.44814  1.0000
  Ti  Ti45      1.0  0.16260  0.57261  0.33892  1.0000
  Ti  Ti46      1.0  0.78699  0.34532  0.48481  1.0000
  Ti  Ti47      1.0  0.36677  0.59820  0.61932  1.0000
  Ti  Ti48      1.0  0.80828  0.02436  0.28600  1.0000
  Ti  Ti49      1.0  0.01095  0.16875  0.45730  1.0000
  Ti  Ti50      1.0  0.10381  0.33623  0.78848  1.0000
  Ti  Ti51      1.0  0.95278  0.19238  0.19901  1.0000
  Ti  Ti52      1.0  0.74736  0.17424  0.45217  1.0000
  Ti  Ti53      1.0  0.40538  0.72011  0.47944  1.0000
  Ti  Ti54      1.0  0.83105  0.93182  0.08719  1.0000
  Ti  Ti55      1.0  0.97649  0.46797  0.51886  1.0000
  Ti  Ti56      1.0  0.84326  0.35829  0.97924  1.0000
  Ti  Ti57      1.0  0.28767  0.05199  0.84441  1.0000
  Ti  Ti58      1.0  0.64186  0.34650  0.61353  1.0000
  Ti  Ti59      1.0  0.42648  0.34189  0.85753  1.0000
  Ti  Ti60      1.0  0.15105  0.56621  0.94618  1.0000
  Ti  Ti61      1.0  0.90376  0.88045  0.46521  1.0000
  Ti  Ti62      1.0  0.83493  0.13994  0.47920  1.0000
  Ti  Ti63      1.0  0.98889  0.92590  0.71947  1.0000
  Ti  Ti64      1.0  0.57230  0.84469  0.83037  1.0000
  Ti  Ti65      1.0  0.73476  0.04190  0.85154  1.0000
  Ti  Ti66      1.0  0.43168  0.19226  0.95517  1.0000
  Ti  Ti67      1.0  0.49442  0.72866  0.60982  1.0000
  Ti  Ti68      1.0  0.59324  0.62567  0.78270  1.0000
  Ti  Ti69      1.0  0.26535  0.85128  0.88704  1.0000
  Ti  Ti70      1.0  0.32869  0.94196  0.16156  1.0000
  Ti  Ti71      1.0  0.38342  0.12161  0.35678  1.0000
  Ti  Ti72      1.0  0.23553  0.32639  0.93729  1.0000
  Ti  Ti73      1.0  0.78783  0.17741  0.81124  1.0000
  Ti  Ti74      1.0  0.48482  0.99094  0.40643  1.0000
  Ti  Ti75      1.0  0.33848  0.78961  0.82611  1.0000
  Ti  Ti76      1.0  0.36244  0.90252  0.86988  1.0000
  Ti  Ti77      1.0  0.67707  0.63528  0.21140  1.0000
  Ti  Ti78      1.0  0.98221  0.79165  0.31399  1.0000
  Ti  Ti79      1.0  0.66846  0.51471  0.08727  1.0000
  Ti  Ti80      1.0  0.92069  0.30339  0.30263  1.0000
  Ti  Ti81      1.0  0.99440  0.21842  0.71522  1.0000
  Ti  Ti82      1.0  0.36105  0.30964  0.42674  1.0000
  Ti  Ti83      1.0  0.72671  0.54091  0.61684  1.0000
  Ti  Ti84      1.0  0.15018  0.12841  0.13548  1.0000
  Ti  Ti85      1.0  0.09434  0.27042  0.40870  1.0000
  Ti  Ti86      1.0  0.43745  0.15480  0.90085  1.0000
  Ti  Ti87      1.0  0.03440  0.52766  0.31440  1.0000
  Ti  Ti88      1.0  0.65422  0.20888  0.37372  1.0000
  Ti  Ti89      1.0  0.42803  0.35104  0.65521  1.0000
  Ti  Ti90      1.0  0.14953  0.04426  0.48196  1.0000
  Ti  Ti91      1.0  0.18353  0.72972  0.73537  1.0000
  Ti  Ti92      1.0  0.33092  0.65044  0.99734  1.0000
  Ti  Ti93      1.0  0.02139  0.74647  0.08669  1.0000
  Ti  Ti94      1.0  0.75309  0.06094  0.24513  1.0000
  Ti  Ti95      1.0  0.73995  0.37843  0.53198  1.0000
  Ti  Ti96      1.0  0.32690  0.58355  0.53803  1.0000
  I   I1        1.0  0.36412  0.63096  0.57859  1.0000
  I   I2        1.0  0.95879  0.17040  0.12081  1.0000
  I   I3        1.0  0.99125  0.18389  0.52598  1.0000
  I   I4        1.0  0.37701  0.71653  0.43415  1.0000
  I   I5        1.0  0.73930  0.91194  0.20176  1.0000
  I   I6        1.0  0.83827  0.95618  0.13997  1.0000
  I   I7        1.0  0.14911  0.77668  0.43360  1.0000
  I   I8        1.0  0.84253  0.36337  0.05726  1.0000
  I   I9        1.0  0.27932  0.05114  0.76559  1.0000
  I   I10       1.0  0.06699  0.66119  0.56798  1.0000
  I   I11       1.0  0.21045  0.32795  0.45100  1.0000
  I   I12       1.0  0.40781  0.83892  0.31046  1.0000
  I   I13       1.0  0.84131  0.18481  0.48894  1.0000
  I   I14       1.0  0.01619  0.00031  0.76539  1.0000
  I   I15       1.0  0.85053  0.89084  0.35917  1.0000
  I   I16       1.0  0.12854  0.63277  0.50000  1.0000
  I   I17       1.0  0.40965  0.22496  0.01020  1.0000
  I   I18       1.0  0.57295  0.80857  0.77458  1.0000
  I   I19       1.0  0.29161  0.12156  0.56243  1.0000
  I   I20       1.0  0.27434  0.29376  0.46118  1.0000
  I   I21       1.0  0.20781  0.70142  0.38555  1.0000
  I   I22       1.0  0.38535  0.20747  0.42326  1.0000
  I   I23       1.0  0.41414  0.12908  0.41902  1.0000
  I   I24       1.0  0.35004  0.96709  0.16594  1.0000
  I   I25       1.0  0.47603  0.02827  0.44369  1.0000
  I   I26       1.0  0.33813  0.75581  0.79035  1.0000
  I   I27       1.0  0.81876  0.18346  0.78019  1.0000
  I   I28       1.0  0.75206  0.62895  0.14999  1.0000
  I   I29       1.0  0.02805  0.75144  0.27448  1.0000
  I   I30       1.0  0.36045  0.96056  0.92956  1.0000
  I   I31       1.0  0.93663  0.27450  0.23795  1.0000
  I   I32       1.0  0.02083  0.17535  0.73736  1.0000
  I   I33       1.0  0.68827  0.52236  0.02717  1.0000
  I   I34       1.0  0.67183  0.59475  0.50816  1.0000
  I   I35       1.0  0.17329  0.05315  0.04992  1.0000
  I   I36       1.0  0.32269  0.26639  0.27784  1.0000
  I   I37       1.0  0.08180  0.24590  0.36205  1.0000
  I   I38       1.0  0.99013  0.56027  0.30271  1.0000
  I   I39       1.0  0.10540  0.28670  0.34279  1.0000
  I   I40       1.0  0.45260  0.37850  0.70984  1.0000
  I   I41       1.0  0.23541  0.98789  0.44130  1.0000
  I   I42       1.0  0.22504  0.35893  0.67204  1.0000
  I   I43       1.0  0.61948  0.36143  0.67797  1.0000
  I   I44       1.0  0.78449  0.67573  0.44607  1.0000
  I   I45       1.0  0.13730  0.60987  0.29104  1.0000
  I   I46       1.0  0.70675  0.37906  0.55963  1.0000
  I   I47       1.0  0.40684  0.58260  0.64544  1.0000
  I   I48       1.0  0.78776  0.02444  0.20476  1.0000
  I   I49       1.0  0.98519  0.17048  0.40039  1.0000
  I   I50       1.0  0.90883  0.22290  0.21491  1.0000
  I   I51       1.0  0.96671  0.21270  0.14696  1.0000
  I   I52       1.0  0.89557  0.33400  0.24544  1.0000
  I   I53       1.0  0.39221  0.76028  0.51779  1.0000
  I   I54       1.0  0.79331  0.96754  0.06338  1.0000
  I   I55       1.0  0.94543  0.51146  0.63638  1.0000
  I   I56       1.0  0.26174  0.69621  0.33873  1.0000
  I   I57       1.0  0.19396  0.08018  0.86910  1.0000
  I   I58       1.0  0.02173  0.66229  0.44443  1.0000
  I   I59       1.0  0.38553  0.36689  0.84530  1.0000
  I   I60       1.0  0.15132  0.57473  0.86576  1.0000
  I   I61       1.0  0.85191  0.12669  0.55689  1.0000
  I   I62       1.0  0.86104  0.17701  0.58416  1.0000
  I   I63       1.0  0.02690  0.93847  0.69995  1.0000
  I   I64       1.0  0.05001  0.68540  0.46413  1.0000
  I   I65       1.0  0.74876  0.06445  0.80673  1.0000
  I   I66       1.0  0.45756  0.15770  0.99810  1.0000
  I   I67       1.0  0.51588  0.68309  0.60007  1.0000
  I   I68       1.0  0.26167  0.11792  0.65823  1.0000
  I   I69       1.0  0.22950  0.86740  0.93784  1.0000
  I   I70       1.0  0.31558  0.95876  0.23720  1.0000
  I   I71       1.0  0.41212  0.16184  0.31184  1.0000
  I   I72       1.0  0.21993  0.31089  0.99150  1.0000
  I   I73       1.0  0.79051  0.14031  0.78057  1.0000
  I   I74       1.0  0.35417  0.79337  0.99508  1.0000
  I   I75       1.0  0.30318  0.83279  0.83626  1.0000
  I   I76       1.0  0.71118  0.60303  0.16240  1.0000
  I   I77       1.0  0.72316  0.63030  0.24747  1.0000
  I   I78       1.0  0.07102  0.80585  0.90405  1.0000
  I   I79       1.0  0.12894  0.90449  0.62053  1.0000
  I   I80       1.0  0.25744  0.36532  0.13284  1.0000
  I   I81       1.0  0.08216  0.18783  0.65761  1.0000
  I   I82       1.0  0.34306  0.35422  0.43699  1.0000
  I   I83       1.0  0.75912  0.52667  0.67206  1.0000
  I   I84       1.0  0.20842  0.03196  0.14378  1.0000
  I   I85       1.0  0.13875  0.24018  0.42592  1.0000
  I   I86       1.0  0.45245  0.13592  0.83398  1.0000
  I   I87       1.0  0.99381  0.50403  0.23235  1.0000
  I   I88       1.0  0.18875  0.42415  0.65778  1.0000
  I   I89       1.0  0.40025  0.39060  0.65059  1.0000
  I   I90       1.0  0.11741  0.06912  0.43689  1.0000
  I   I91       1.0  0.17174  0.73395  0.66230  1.0000
  I   I92       1.0  0.31069  0.68319  0.04354  1.0000
  I   I93       1.0  0.77511  0.72481  0.51144  1.0000
  I   I94       1.0  0.78186  0.07348  0.27910  1.0000
  I   I95       1.0  0.82360  0.33789  0.45317  1.0000
  I   I96       1.0  0.34031  0.58456  0.46956  1.0000
  I   I97       1.0  0.54212  0.98181  0.85924  1.0000
  I   I98       1.0  0.09015  0.85201  0.83108  1.0000
  I   I99       1.0  0.02031  0.12917  0.16917  1.0000
  I   I100      1.0  0.86896  0.39762  0.26144  1.0000
  I   I101      1.0  0.75353  0.13537  0.49468  1.0000
  I   I102      1.0  0.43506  0.75533  0.27697  1.0000
  I   I103      1.0  0.00089  0.47215  0.58573  1.0000
  I   I104      1.0  0.98089  0.53363  0.59378  1.0000
  I   I105      1.0  0.23023  0.06783  0.96287  1.0000
  I   I106      1.0  0.09632  0.61301  0.09515  1.0000
  I   I107      1.0  0.03664  0.62741  0.55821  1.0000
  I   I108      1.0  0.06112  0.65273  0.02944  1.0000
  I   I109      1.0  0.89196  0.83315  0.29713  1.0000
  I   I110      1.0  0.83095  0.14243  0.39756  1.0000
  I   I111      1.0  0.01522  0.90763  0.78064  1.0000
  I   I112      1.0  0.56170  0.87723  0.78027  1.0000
  I   I113      1.0  0.69279  0.06760  0.82718  1.0000
  I   I114      1.0  0.33427  0.99017  0.44504  1.0000
  I   I115      1.0  0.50756  0.71308  0.69673  1.0000
  I   I116      1.0  0.47135  0.76966  0.62647  1.0000
  I   I117      1.0  0.59618  0.59029  0.74758  1.0000
  I   I118      1.0  0.60377  0.89986  0.28557  1.0000
  I   I119      1.0  0.36344  0.90515  0.18056  1.0000
  I   I120      1.0  0.22904  0.31667  0.86504  1.0000
  I   I121      1.0  0.76307  0.22026  0.83592  1.0000
  I   I122      1.0  0.39067  0.98892  0.41972  1.0000
  I   I123      1.0  0.34415  0.77401  0.90058  1.0000
  I   I124      1.0  0.41228  0.88897  0.84276  1.0000
  I   I125      1.0  0.71569  0.68656  0.20602  1.0000
  I   I126      1.0  0.01718  0.78535  0.37349  1.0000
  I   I127      1.0  0.17414  0.85825  0.57057  1.0000
  I   I128      1.0  0.91771  0.39029  0.32572  1.0000
  I   I129      1.0  0.08405  0.14862  0.75306  1.0000
  I   I130      1.0  0.12726  0.10619  0.11776  1.0000
  I   I131      1.0  0.34452  0.28488  0.37892  1.0000
  I   I132      1.0  0.69106  0.58996  0.61846  1.0000
  I   I133      1.0  0.94214  0.55070  0.25256  1.0000
  I   I134      1.0  0.35459  0.47931  0.15659  1.0000
  I   I135      1.0  0.40513  0.19711  0.87175  1.0000
  I   I136      1.0  0.14540  0.01037  0.44731  1.0000
  I   I137      1.0  0.69235  0.19125  0.33527  1.0000
  I   I138      1.0  0.43954  0.39560  0.58853  1.0000
  I   I139      1.0  0.22026  0.70135  0.76717  1.0000
  I   I140      1.0  0.30889  0.64800  0.93789  1.0000
  I   I141      1.0  0.99590  0.72735  0.07223  1.0000
  I   I142      1.0  0.74115  0.02642  0.23640  1.0000
  I   I143      1.0  0.80121  0.30173  0.48181  1.0000
  I   I144      1.0  0.28471  0.59252  0.51803  1.0000
  I   I145      1.0  0.08480  0.80667  0.77284  1.0000
  I   I146      1.0  0.97330  0.12131  0.11672  1.0000
  I   I147      1.0  0.51952  0.94402  0.82025  1.0000
  I   I148      1.0  0.75004  0.19947  0.39694  1.0000
  I   I149      1.0  0.43773  0.80864  0.22627  1.0000
  I   I150      1.0  0.78807  0.86630  0.14306  1.0000
  I   I151      1.0  0.99935  0.44015  0.46078  1.0000
  I   I152      1.0  0.14129  0.72171  0.41399  1.0000
  I   I153      1.0  0.29966  0.08554  0.86130  1.0000
  I   I154      1.0  0.32397  0.96076  0.07781  1.0000
  I   I155      1.0  0.24078  0.37029  0.43896  1.0000
  I   I156      1.0  0.16720  0.52431  0.94021  1.0000
  I   I157      1.0  0.89714  0.88119  0.27758  1.0000
  I   I158      1.0  0.95617  0.91907  0.72885  1.0000
  I   I159      1.0  0.92838  0.85039  0.51930  1.0000
  I   I160      1.0  0.51786  0.79100  0.78856  1.0000
  I   I161      1.0  0.27366  0.03685  0.40848  1.0000
  I   I162      1.0  0.48219  0.85684  0.78315  1.0000
  I   I163      1.0  0.55249  0.62180  0.65015  1.0000
  I   I164      1.0  0.62958  0.63343  0.81214  1.0000
  I   I165      1.0  0.25477  0.69163  0.45295  1.0000
  I   I166      1.0  0.63804  0.83724  0.34405  1.0000
  I   I167      1.0  0.34230  0.13071  0.34251  1.0000
  I   I168      1.0  0.29827  0.75369  0.69947  1.0000
  I   I169      1.0  0.44159  0.00132  0.42613  1.0000
  I   I170      1.0  0.51431  0.96643  0.46646  1.0000
  I   I171      1.0  0.76783  0.19482  0.73137  1.0000
  I   I172      1.0  0.34719  0.93880  0.83141  1.0000
  I   I173      1.0  0.96481  0.79733  0.23998  1.0000
  I   I174      1.0  0.38184  0.90408  0.94246  1.0000
  I   I175      1.0  0.22919  0.40084  0.25831  1.0000
  I   I176      1.0  0.05622  0.14204  0.63523  1.0000
  I   I177      1.0  0.68746  0.48249  0.14610  1.0000
  I   I178      1.0  0.39048  0.29633  0.48406  1.0000
  I   I179      1.0  0.75597  0.55704  0.58242  1.0000
  I   I180      1.0  0.16781  0.10016  0.20252  1.0000
  I   I181      1.0  0.08754  0.31389  0.43179  1.0000
  I   I182      1.0  0.46719  0.16910  0.90206  1.0000
  I   I183      1.0  0.07605  0.51146  0.31770  1.0000
  I   I184      1.0  0.65691  0.18075  0.42721  1.0000
  I   I185      1.0  0.50370  0.35326  0.64180  1.0000
  I   I186      1.0  0.23606  0.03090  0.50299  1.0000
  I   I187      1.0  0.35860  0.66105  0.96034  1.0000
  I   I188      1.0  0.75542  0.75109  0.40099  1.0000
  I   I189      1.0  0.19749  0.55919  0.37346  1.0000
  I   I190      1.0  0.74123  0.35574  0.46505  1.0000
  I   I191      1.0  0.11543  0.35579  0.83655  1.0000
  I   I192      1.0  0.84583  0.02280  0.30198  1.0000
  I   I193      1.0  0.07806  0.73299  0.39079  1.0000
  I   I194      1.0  0.07723  0.32983  0.83652  1.0000
  I   I195      1.0  0.47541  0.01191  0.78143  1.0000
  I   I196      1.0  0.93323  0.35203  0.23258  1.0000
  I   I197      1.0  0.68143  0.34165  0.61794  1.0000
  I   I198      1.0  0.75188  0.92890  0.10477  1.0000
  I   I199      1.0  0.98373  0.49592  0.47276  1.0000
  I   I200      1.0  0.80978  0.36039  0.93241  1.0000
  I   I201      1.0  0.24330  0.01700  0.87236  1.0000
  I   I202      1.0  0.46667  0.34301  0.86276  1.0000
  I   I203      1.0  0.24925  0.84120  0.82049  1.0000
  I   I204      1.0  0.11381  0.60958  0.94463  1.0000
  I   I205      1.0  0.91546  0.14028  0.53112  1.0000
  I   I206      1.0  0.01287  0.89347  0.66820  1.0000
  I   I207      1.0  0.90591  0.89454  0.38492  1.0000
  I   I208      1.0  0.10104  0.64699  0.41853  1.0000
  I   I209      1.0  0.29789  0.00491  0.53591  1.0000
  I   I210      1.0  0.53134  0.82011  0.69313  1.0000
  I   I211      1.0  0.52973  0.73261  0.59299  1.0000
  I   I212      1.0  0.23261  0.16450  0.57147  1.0000
  I   I213      1.0  0.26301  0.88990  0.89481  1.0000
  I   I214      1.0  0.61046  0.89160  0.40202  1.0000
  I   I215      1.0  0.36057  0.17097  0.36816  1.0000
  I   I216      1.0  0.25930  0.74570  0.78852  1.0000
  I   I217      1.0  0.41448  0.00365  0.31318  1.0000
  I   I218      1.0  0.34505  0.79992  0.74409  1.0000
  I   I219      1.0  0.72544  0.17511  0.74039  1.0000
  I   I220      1.0  0.66464  0.67660  0.20901  1.0000
  I   I221      1.0  0.09521  0.74361  0.29724  1.0000
  I   I222      1.0  0.38579  0.96505  0.82718  1.0000
  I   I223      1.0  0.21303  0.42906  0.15225  1.0000
  I   I224      1.0  0.02216  0.20027  0.64269  1.0000
  I   I225      1.0  0.19729  0.87528  0.66272  1.0000
  I   I226      1.0  0.39839  0.29928  0.38173  1.0000
  I   I227      1.0  0.71451  0.51550  0.65568  1.0000
  I   I228      1.0  0.14176  0.15758  0.18654  1.0000
  I   I229      1.0  0.16222  0.27471  0.45593  1.0000
  I   I230      1.0  0.40714  0.47734  0.12626  1.0000
  I   I231      1.0  0.95518  0.52556  0.35872  1.0000
  I   I232      1.0  0.01622  0.99728  0.63963  1.0000
  I   I233      1.0  0.46046  0.33136  0.58142  1.0000
  I   I234      1.0  0.12282  0.05008  0.54244  1.0000
  I   I235      1.0  0.28795  0.99632  0.02611  1.0000
  I   I236      1.0  0.98997  0.78532  0.11288  1.0000
  I   I237      1.0  0.15121  0.74020  0.78414  1.0000
  I   I238      1.0  0.71535  0.42006  0.49327  1.0000
  I   I239      1.0  0.33935  0.53756  0.53242  1.0000
  I   I240      1.0  0.80610  0.98839  0.28102  1.0000
  I   I241      1.0  0.03507  0.18719  0.44430  1.0000
  I   I242      1.0  0.93224  0.16683  0.20671  1.0000
  I   I243      1.0  0.48031  0.99343  0.88983  1.0000
  I   I244      1.0  0.71049  0.20544  0.48527  1.0000
  I   I245      1.0  0.41782  0.69292  0.53695  1.0000
  I   I246      1.0  0.77780  0.93909  0.20860  1.0000
  I   I247      1.0  0.97346  0.43294  0.56172  1.0000
  I   I248      1.0  0.20022  0.75407  0.38218  1.0000
  I   I249      1.0  0.23734  0.08601  0.83516  1.0000
  I   I250      1.0  0.42133  0.34804  0.93682  1.0000
  I   I251      1.0  0.23878  0.33561  0.55147  1.0000
  I   I252      1.0  0.11693  0.56165  0.99866  1.0000
  I   I253      1.0  0.84459  0.09884  0.47670  1.0000
  I   I254      1.0  0.96748  0.97122  0.70017  1.0000
  I   I255      1.0  0.92260  0.90350  0.50000  1.0000
  I   I256      1.0  0.73243  0.04523  0.93099  1.0000
  I   I257      1.0  0.29203  0.97723  0.38530  1.0000
  I   I258      1.0  0.61466  0.82129  0.82919  1.0000
  I   I259      1.0  0.47610  0.72799  0.54371  1.0000
  I   I260      1.0  0.56572  0.62472  0.83931  1.0000
  I   I261      1.0  0.18411  0.72996  0.50214  1.0000
  I   I262      1.0  0.56559  0.87610  0.33896  1.0000
  I   I263      1.0  0.38085  0.09270  0.41150  1.0000
  I   I264      1.0  0.24159  0.74808  0.65461  1.0000
  I   I265      1.0  0.47741  0.95783  0.36495  1.0000
  I   I266      1.0  0.29295  0.82813  0.01364  1.0000
  I   I267      1.0  0.79007  0.16734  0.88948  1.0000
  I   I268      1.0  0.64235  0.63218  0.19478  1.0000
  I   I269      1.0  0.96071  0.83281  0.33480  1.0000
  I   I270      1.0  0.32073  0.91900  0.89847  1.0000
  I   I271      1.0  0.19893  0.37678  0.18983  1.0000
  I   I272      1.0  0.97942  0.22367  0.79175  1.0000
  I   I273      1.0  0.16249  0.84576  0.70100  1.0000
  I   I274      1.0  0.34378  0.33376  0.30483  1.0000
  I   I275      1.0  0.70771  0.61435  0.51286  1.0000
  I   I276      1.0  0.14165  0.15026  0.07022  1.0000
  I   I277      1.0  0.33280  0.30735  0.47875  1.0000
  I   I278      1.0  0.41309  0.41574  0.19707  1.0000
  I   I279      1.0  0.02247  0.49860  0.31960  1.0000
  I   I280      1.0  0.63429  0.25022  0.39606  1.0000
  I   I281      1.0  0.41621  0.35463  0.73315  1.0000
  I   I282      1.0  0.16896  0.07157  0.48398  1.0000
  I   I283      1.0  0.24041  0.97881  0.07073  1.0000
  I   I284      1.0  0.04580  0.72155  0.14214  1.0000
  I   I285      1.0  0.13016  0.56773  0.37392  1.0000
  I   I286      1.0  0.78057  0.38614  0.50983  1.0000
  I   I287      1.0  0.31629  0.62356  0.56996  1.0000
  I   I288      1.0  0.72137  0.07659  0.29478  1.0000
  I   I289      1.0  0.03718  0.13061  0.48740  1.0000
  I   I290      1.0  0.08783  0.34733  0.71830  1.0000
  I   I291      1.0  0.98147  0.16698  0.24903  1.0000
  I   I292      1.0  0.74463  0.15079  0.38668  1.0000
  I   I293      1.0  0.43255  0.72349  0.42829  1.0000
  I   I294      1.0  0.82456  0.90278  0.13115  1.0000
  I   I295      1.0  0.93993  0.53903  0.51273  1.0000
  I   I296      1.0  0.84364  0.39488  0.94691  1.0000
  I   I297      1.0  0.32988  0.02508  0.83488  1.0000
  I   I298      1.0  0.62722  0.36863  0.54898  1.0000
  I   I299      1.0  0.08984  0.60394  0.51962  1.0000
  I   I300      1.0  0.18510  0.57172  0.94878  1.0000
  I   I301      1.0  0.87097  0.89302  0.51416  1.0000
  I   I302      1.0  0.87851  0.12794  0.44567  1.0000
  I   I303      1.0  0.16702  0.38350  0.62603  1.0000
  I   I304      1.0  0.52968  0.84715  0.84153  1.0000
  I   I305      1.0  0.09579  0.70060  0.50084  1.0000
  I   I306      1.0  0.43385  0.22875  0.92461  1.0000
  I   I307      1.0  0.55640  0.65709  0.73704  1.0000
  I   I308      1.0  0.26258  0.16711  0.68417  1.0000
  I   I309      1.0  0.25448  0.74887  0.41517  1.0000
  I   I310      1.0  0.27429  0.00013  0.16301  1.0000
  I   I311      1.0  0.44140  0.16400  0.40295  1.0000
  I   I312      1.0  0.22453  0.36716  0.94796  1.0000
  I   I313      1.0  0.70137  0.23588  0.75545  1.0000
  I   I314      1.0  0.43388  0.94277  0.35229  1.0000
  I   I315      1.0  0.37791  0.78824  0.83218  1.0000
  I   I316      1.0  0.36183  0.87726  0.81785  1.0000
  I   I317      1.0  0.68841  0.65828  0.11379  1.0000
  I   I318      1.0  0.97380  0.76334  0.34497  1.0000
  I   I319      1.0  0.64849  0.54487  0.14342  1.0000
  I   I320      1.0  0.88447  0.34766  0.34504  1.0000
  I   I321      1.0  0.99387  0.25637  0.70281  1.0000
  I   I322      1.0  0.34385  0.29490  0.23899  1.0000
  I   I323      1.0  0.70650  0.54126  0.54946  1.0000
  I   I324      1.0  0.14204  0.04223  0.13170  1.0000
  I   I325      1.0  0.16039  0.28679  0.34893  1.0000
  I   I326      1.0  0.45492  0.11453  0.93365  1.0000
  I   I327      1.0  0.02937  0.54721  0.24032  1.0000
  I   I328      1.0  0.18225  0.40281  0.75994  1.0000
  I   I329      1.0  0.47360  0.31624  0.68272  1.0000
  I   I330      1.0  0.18350  0.02981  0.40631  1.0000
  I   I331      1.0  0.17822  0.54257  0.27901  1.0000
  I   I332      1.0  0.64310  0.30837  0.59370  1.0000
  I   I333      1.0  0.71853  0.72148  0.44480  1.0000
  I   I334      1.0  0.79530  0.03151  0.35745  1.0000
  I   I335      1.0  0.77250  0.34526  0.55953  1.0000
  I   I336      1.0  0.37377  0.57154  0.55731  1.0000
  I   I337      1.0  0.13361  0.78929  0.86592  1.0000
  I   I338      1.0  0.13184  0.29423  0.79177  1.0000
  I   I339      1.0  0.97979  0.10594  0.23040  1.0000
  I   I340      1.0  0.91782  0.26920  0.35052  1.0000
  I   I341      1.0  0.37706  0.80385  0.25989  1.0000
  I   I342      1.0  0.86216  0.90583  0.04212  1.0000
  I   I343      1.0  0.93133  0.48502  0.50959  1.0000
  I   I344      1.0  0.87876  0.31975  0.97773  1.0000
  I   I345      1.0  0.28309  0.02934  0.91407  1.0000
  I   I346      1.0  0.29880  0.93519  0.12956  1.0000
  I   I347      1.0  0.43622  0.29995  0.86294  1.0000
  I   I348      1.0  0.05428  0.60687  0.03296  1.0000
  I   I349      1.0  0.90017  0.84509  0.41895  1.0000
  I   I350      1.0  0.79251  0.16870  0.47982  1.0000
  I   I351      1.0  0.96639  0.02528  0.72297  1.0000
  I   I352      1.0  0.57624  0.84892  0.90853  1.0000
  I   I353      1.0  0.75899  0.00230  0.82530  1.0000
  I   I354      1.0  0.40254  0.17367  0.96503  1.0000
  I   I355      1.0  0.50458  0.65181  0.72648  1.0000
  I   I356      1.0  0.61747  0.62649  0.72158  1.0000
  I   I357      1.0  0.27539  0.81248  0.92642  1.0000
  I   I358      1.0  0.23469  0.79995  0.72457  1.0000
  I   I359      1.0  0.41676  0.09456  0.31010  1.0000
  I   I360      1.0  0.27838  0.30275  0.92354  1.0000
  I   I361      1.0  0.73422  0.18579  0.85048  1.0000
  I   I362      1.0  0.48456  0.00939  0.34039  1.0000
  I   I363      1.0  0.31257  0.76932  0.02161  1.0000
  I   I364      1.0  0.42617  0.93211  0.91079  1.0000
  I   I365      1.0  0.66531  0.64083  0.28216  1.0000
  I   I366      1.0  0.04464  0.79629  0.28261  1.0000
  I   I367      1.0  0.64302  0.50081  0.06306  1.0000
  I   I368      1.0  0.95431  0.30535  0.33377  1.0000
  I   I369      1.0  0.96459  0.22596  0.66977  1.0000
  I   I370      1.0  0.28337  0.32425  0.34082  1.0000
  I   I371      1.0  0.73986  0.55147  0.48728  1.0000
  I   I372      1.0  0.18781  0.09268  0.09504  1.0000
  I   I373      1.0  0.08327  0.26327  0.47878  1.0000
  I   I374      1.0  0.39490  0.43358  0.07528  1.0000
  I   I375      1.0  0.02579  0.53034  0.39428  1.0000
  I   I376      1.0  0.62485  0.20623  0.33087  1.0000
  I   I377      1.0  0.40343  0.33212  0.62534  1.0000
  I   I378      1.0  0.18080  0.00633  0.52316  1.0000
  I   I379      1.0  0.18394  0.77041  0.73538  1.0000
  I   I380      1.0  0.34185  0.61287  0.04448  1.0000
  I   I381      1.0  0.04341  0.75940  0.03976  1.0000
  I   I382      1.0  0.73393  0.08943  0.19235  1.0000
  I   I383      1.0  0.73609  0.40329  0.59779  1.0000
  I   I384      1.0  0.35391  0.60410  0.69218  1.0000
