data_image0
_chemical_formula_structural       Ti96I384
_chemical_formula_sum              "Ti96 I384"
_cell_length_a       65.7914
_cell_length_b       65.5472
_cell_length_c       32.0614
_cell_angle_alpha    88.7757
_cell_angle_beta     88.7757
_cell_angle_gamma    62.1586

_space_group_name_H-M_alt    "P 1"
_space_group_IT_number       1

loop_
  _space_group_symop_operation_xyz
  'x, y, z'

loop_
  _atom_site_type_symbol
  _atom_site_label
  _atom_site_symmetry_multiplicity
  _atom_site_fract_x
  _atom_site_fract_y
  _atom_site_fract_z
  _atom_site_occupancy
  Ti  Ti1       1.0  0.55904  0.84742  0.52455  1.0000
  Ti  Ti2       1.0  0.49647  0.03599  0.28058  1.0000
  Ti  Ti3       1.0  0.82819  0.79244  0.32268  1.0000
  Ti  Ti4       1.0  0.11813  0.96446  0.89131  1.0000
  Ti  Ti5       1.0  0.79217  0.78511  0.68232  1.0000
  Ti  Ti6       1.0  0.44903  0.30670  0.66080  1.0000
  Ti  Ti7       1.0  0.83125  0.12706  0.30788  1.0000
  Ti  Ti8       1.0  0.50361  0.18001  0.09131  1.0000
  Ti  Ti9       1.0  0.29669  0.86454  0.80893  1.0000
  Ti  Ti10      1.0  0.66987  0.94328  0.66257  1.0000
  Ti  Ti11      1.0  0.94333  0.48767  0.66767  1.0000
  Ti  Ti12      1.0  0.09104  0.58767  0.45756  1.0000
  Ti  Ti13      1.0  0.19976  0.11530  0.50713  1.0000
  Ti  Ti14      1.0  0.11958  0.99909  0.41341  1.0000
  Ti  Ti15      1.0  0.58707  0.20930  0.73980  1.0000
  Ti  Ti16      1.0  0.71276  0.90819  0.75921  1.0000
  Ti  Ti17      1.0  0.34328  0.04711  0.56758  1.0000
  Ti  Ti18      1.0  0.09502  0.74453  0.15190  1.0000
  Ti  Ti19      1.0  0.41768  0.80509  0.24230  1.0000
  Ti  Ti20      1.0  0.42118  0.91865  0.51393  1.0000
  Ti  Ti21      1.0  0.25210  0.98419  0.93918  1.0000
  Ti  Ti22      1.0  0.67614  0.45357  0.32965  1.0000
  Ti  Ti23      1.0  0.51083  0.03959  0.58105  1.0000
  Ti  Ti24      1.0  0.03943  0.86119  0.36861  1.0000
  Ti  Ti25      1.0  0.68590  0.72334  0.96526  1.0000
  Ti  Ti26      1.0  0.46921  0.89959  0.15123  1.0000
  Ti  Ti27      1.0  0.94753  0.83368  0.30382  1.0000
  Ti  Ti28      1.0  0.72006  0.33609  0.92060  1.0000
  Ti  Ti29      1.0  0.81945  0.00070  0.55076  1.0000
  Ti  Ti30      1.0  0.88965  0.22019  0.58470  1.0000
  Ti  Ti31      1.0  0.81313  0.23701  0.79863  1.0000
  Ti  Ti32      1.0  0.73060  0.27318  0.25306  1.0000
  Ti  Ti33      1.0  0.34150  0.83899  0.06868  1.0000
  Ti  Ti34      1.0  0.48597  0.52659  0.97300  1.0000
  Ti  Ti35      1.0  0.71849  0.58877  0.49400  1.0000
  Ti  Ti36      1.0  0.80289  0.66363  0.27346  1.0000
  Ti  Ti37      1.0  0.00236  0.43671  0.27482  1.0000
  Ti  Ti38      1.0  0.54704  0.27537  0.99526  1.0000
  Ti  Ti39      1.0  0.97735  0.82293  0.92221  1.0000
  Ti  Ti40      1.0  0.15750  0.15991  0.23070  1.0000
  Ti  Ti41      1.0  0.59612  0.65343  0.94695  1.0000
  Ti  Ti42      1.0  0.84824  0.39261  0.03504  1.0000
  Ti  Ti43      1.0  0.66152  0.18264  0.47772  1.0000
  Ti  Ti44      1.0  0.81887  0.55675  0.86800  1.0000
  Ti  Ti45      1.0  0.33959  0.60453  0.91178  1.0000
  Ti  Ti46      1.0  0.34409  0.51181  0.43560  1.0000
  Ti  Ti47      1.0  0.11405  0.56745  0.08523  1.0000
  Ti  Ti48      1.0  0.54035  0.60527  0.55843  1.0000
  Ti  Ti49      1.0  0.67759  0.68601  0.66114  1.0000
  Ti  Ti50      1.0  0.11564  0.11342  0.01143  1.0000
  Ti  Ti51      1.0  0.49433  0.02842  0.18087  1.0000
  Ti  Ti52      1.0  0.04827  0.00913  0.83757  1.0000
  Ti  Ti53      1.0  0.32578  0.58685  0.69624  1.0000
  Ti  Ti54      1.0  0.45534  0.24035  0.66313  1.0000
  Ti  Ti55      1.0  0.83368  0.09999  0.19074  1.0000
  Ti  Ti56      1.0  0.43496  0.21676  0.01729  1.0000
  Ti  Ti57      1.0  0.24458  0.85592  0.73540  1.0000
  Ti  Ti58      1.0  0.67910  0.17768  0.35038  1.0000
  Ti  Ti59      1.0  0.43211  0.14619  0.88554  1.0000
  Ti  Ti60      1.0  0.13973  0.60939  0.44086  1.0000
  Ti  Ti61      1.0  0.63609  0.21808  0.77548  1.0000
  Ti  Ti62      1.0  0.15616  0.16501  0.57355  1.0000
  Ti  Ti63      1.0  0.10253  0.02171  0.52044  1.0000
  Ti  Ti64      1.0  0.12804  0.67973  0.18645  1.0000
  Ti  Ti65      1.0  0.09470  0.32231  0.70174  1.0000
  Ti  Ti66      1.0  0.47047  0.33385  0.21228  1.0000
  Ti  Ti67      1.0  0.40982  0.82903  0.37060  1.0000
  Ti  Ti68      1.0  0.11373  0.29313  0.10499  1.0000
  Ti  Ti69      1.0  0.24493  0.03819  0.87778  1.0000
  Ti  Ti70      1.0  0.63024  0.49643  0.31717  1.0000
  Ti  Ti71      1.0  0.54550  0.05745  0.50182  1.0000
  Ti  Ti72      1.0  0.27780  0.88995  0.29157  1.0000
  Ti  Ti73      1.0  0.94602  0.88004  0.30912  1.0000
  Ti  Ti74      1.0  0.63905  0.76676  0.93566  1.0000
  Ti  Ti75      1.0  0.45164  0.94304  0.05064  1.0000
  Ti  Ti76      1.0  0.84511  0.22399  0.49479  1.0000
  Ti  Ti77      1.0  0.72847  0.39698  0.93147  1.0000
  Ti  Ti78      1.0  0.86204  0.95963  0.63985  1.0000
  Ti  Ti79      1.0  0.53717  0.41385  0.50276  1.0000
  Ti  Ti80      1.0  0.83524  0.12819  0.56920  1.0000
  Ti  Ti81      1.0  0.67226  0.27701  0.21451  1.0000
  Ti  Ti82      1.0  0.55835  0.48536  0.91929  1.0000
  Ti  Ti83      1.0  0.72175  0.52851  0.57681  1.0000
  Ti  Ti84      1.0  0.83107  0.62368  0.19737  1.0000
  Ti  Ti85      1.0  0.93424  0.48451  0.34081  1.0000
  Ti  Ti86      1.0  0.49017  0.30479  0.10055  1.0000
  Ti  Ti87      1.0  0.00579  0.79927  0.79123  1.0000
  Ti  Ti88      1.0  0.57913  0.91119  0.31970  1.0000
  Ti  Ti89      1.0  0.55955  0.65747  0.85746  1.0000
  Ti  Ti90      1.0  0.86873  0.33378  0.98036  1.0000
  Ti  Ti91      1.0  0.30028  0.65937  0.89897  1.0000
  Ti  Ti92      1.0  0.84593  0.99045  0.92220  1.0000
  Ti  Ti93      1.0  0.77731  0.61885  0.85908  1.0000
  Ti  Ti94      1.0  0.56275  0.54848  0.59208  1.0000
  Ti  Ti95      1.0  0.32923  0.49082  0.33818  1.0000
  Ti  Ti96      1.0  0.12182  0.49733  0.04941  1.0000
  I   I1        1.0  0.16445  0.46968  0.04657  1.0000
  I   I2        1.0  0.53124  0.99976  0.21655  1.0000
  I   I3        1.0  0.66457  0.72106  0.70638  1.0000
  I   I4        1.0  0.36433  0.58697  0.71214  1.0000
  I   I5        1.0  0.41268  0.28345  0.66094  1.0000
  I   I6        1.0  0.47730  0.25458  0.72261  1.0000
  I   I7        1.0  0.51043  0.13946  0.06730  1.0000
  I   I8        1.0  0.42460  0.25925  0.02712  1.0000
  I   I9        1.0  0.32335  0.83708  0.86592  1.0000
  I   I10       1.0  0.68752  0.95431  0.74117  1.0000
  I   I11       1.0  0.95958  0.46885  0.59036  1.0000
  I   I12       1.0  0.75763  0.77649  0.67564  1.0000
  I   I13       1.0  0.11400  0.19152  0.55802  1.0000
  I   I14       1.0  0.14720  0.00567  0.47272  1.0000
  I   I15       1.0  0.56749  0.18731  0.77748  1.0000
  I   I16       1.0  0.70726  0.88995  0.83052  1.0000
  I   I17       1.0  0.46714  0.37402  0.23602  1.0000
  I   I18       1.0  0.10766  0.66537  0.13316  1.0000
  I   I19       1.0  0.39410  0.95805  0.47139  1.0000
  I   I20       1.0  0.90896  0.50140  0.72274  1.0000
  I   I21       1.0  0.22940  0.97038  0.89574  1.0000
  I   I22       1.0  0.57481  0.07355  0.52378  1.0000
  I   I23       1.0  0.49776  0.02048  0.52155  1.0000
  I   I24       1.0  0.61475  0.51948  0.39975  1.0000
  I   I25       1.0  0.63261  0.79442  0.00070  1.0000
  I   I26       1.0  0.45349  0.95013  0.13248  1.0000
  I   I27       1.0  0.92147  0.84004  0.23522  1.0000
  I   I28       1.0  0.71568  0.36612  0.98125  1.0000
  I   I29       1.0  0.86525  0.98466  0.70679  1.0000
  I   I30       1.0  0.87454  0.19739  0.43762  1.0000
  I   I31       1.0  0.86318  0.12124  0.50718  1.0000
  I   I32       1.0  0.63463  0.27796  0.25070  1.0000
  I   I33       1.0  0.52706  0.45256  0.54481  1.0000
  I   I34       1.0  0.76166  0.49126  0.56961  1.0000
  I   I35       1.0  0.76953  0.70091  0.24099  1.0000
  I   I36       1.0  0.46509  0.53324  0.04756  1.0000
  I   I37       1.0  0.92209  0.46595  0.40479  1.0000
  I   I38       1.0  0.00540  0.83088  0.84731  1.0000
  I   I39       1.0  0.96775  0.48692  0.27766  1.0000
  I   I40       1.0  0.56681  0.61625  0.83390  1.0000
  I   I41       1.0  0.85934  0.29858  0.00563  1.0000
  I   I42       1.0  0.11666  0.16617  0.23835  1.0000
  I   I43       1.0  0.66314  0.18380  0.27203  1.0000
  I   I44       1.0  0.79552  0.63897  0.89779  1.0000
  I   I45       1.0  0.31113  0.69428  0.89332  1.0000
  I   I46       1.0  0.35099  0.45023  0.30334  1.0000
  I   I47       1.0  0.07720  0.56758  0.12239  1.0000
  I   I48       1.0  0.51476  0.56162  0.57502  1.0000
  I   I49       1.0  0.71117  0.67852  0.60906  1.0000
  I   I50       1.0  0.50780  0.00313  0.33727  1.0000
  I   I51       1.0  0.52186  0.05807  0.27013  1.0000
  I   I52       1.0  0.08981  0.96205  0.82029  1.0000
  I   I53       1.0  0.32233  0.58759  0.61925  1.0000
  I   I54       1.0  0.48009  0.19833  0.67382  1.0000
  I   I55       1.0  0.84400  0.13364  0.23111  1.0000
  I   I56       1.0  0.53360  0.18845  0.06190  1.0000
  I   I57       1.0  0.25483  0.88930  0.70815  1.0000
  I   I58       1.0  0.63100  0.94666  0.63839  1.0000
  I   I59       1.0  0.39759  0.16618  0.82822  1.0000
  I   I60       1.0  0.08048  0.61722  0.38784  1.0000
  I   I61       1.0  0.15681  0.12262  0.53814  1.0000
  I   I62       1.0  0.18287  0.16173  0.49605  1.0000
  I   I63       1.0  0.08704  0.04456  0.44519  1.0000
  I   I64       1.0  0.73897  0.87655  0.70319  1.0000
  I   I65       1.0  0.08723  0.32629  0.62424  1.0000
  I   I66       1.0  0.48562  0.31193  0.27990  1.0000
  I   I67       1.0  0.45282  0.76753  0.21273  1.0000
  I   I68       1.0  0.39881  0.92367  0.58402  1.0000
  I   I69       1.0  0.21321  0.08007  0.86650  1.0000
  I   I70       1.0  0.69741  0.43316  0.39862  1.0000
  I   I71       1.0  0.50463  0.06714  0.64700  1.0000
  I   I72       1.0  0.29425  0.84455  0.29078  1.0000
  I   I73       1.0  0.94135  0.91102  0.25351  1.0000
  I   I74       1.0  0.44297  0.90447  0.07610  1.0000
  I   I75       1.0  0.47839  0.91601  0.98607  1.0000
  I   I76       1.0  0.70636  0.33587  0.84112  1.0000
  I   I77       1.0  0.74386  0.41103  0.86900  1.0000
  I   I78       1.0  0.88377  0.91831  0.67341  1.0000
  I   I79       1.0  0.34190  0.80282  0.04695  1.0000
  I   I80       1.0  0.83345  0.24925  0.85080  1.0000
  I   I81       1.0  0.69300  0.27368  0.28849  1.0000
  I   I82       1.0  0.58621  0.47126  0.85279  1.0000
  I   I83       1.0  0.68406  0.59434  0.44827  1.0000
  I   I84       1.0  0.77514  0.64513  0.31416  1.0000
  I   I85       1.0  0.97651  0.43746  0.34552  1.0000
  I   I86       1.0  0.51659  0.31827  0.01577  1.0000
  I   I87       1.0  0.97169  0.86350  0.94292  1.0000
  I   I88       1.0  0.17280  0.15781  0.15322  1.0000
  I   I89       1.0  0.56905  0.69056  0.91226  1.0000
  I   I90       1.0  0.84700  0.33617  0.91239  1.0000
  I   I91       1.0  0.28310  0.66652  0.82248  1.0000
  I   I92       1.0  0.83062  0.96048  0.93009  1.0000
  I   I93       1.0  0.85635  0.55157  0.90706  1.0000
  I   I94       1.0  0.54670  0.64122  0.54178  1.0000
  I   I95       1.0  0.30096  0.52123  0.44715  1.0000
  I   I96       1.0  0.11129  0.46770  0.08213  1.0000
  I   I97       1.0  0.86934  0.78120  0.33169  1.0000
  I   I98       1.0  0.56102  0.88584  0.53560  1.0000
  I   I99       1.0  0.45554  0.06859  0.30443  1.0000
  I   I100      1.0  0.12386  0.97969  0.96876  1.0000
  I   I101      1.0  0.01647  0.99481  0.83409  1.0000
  I   I102      1.0  0.77653  0.82065  0.62795  1.0000
  I   I103      1.0  0.80949  0.07886  0.16357  1.0000
  I   I104      1.0  0.78972  0.13433  0.26817  1.0000
  I   I105      1.0  0.24995  0.86102  0.81214  1.0000
  I   I106      1.0  0.14883  0.60746  0.35963  1.0000
  I   I107      1.0  0.65539  0.98824  0.65183  1.0000
  I   I108      1.0  0.13439  0.56079  0.42385  1.0000
  I   I109      1.0  0.68065  0.18927  0.75407  1.0000
  I   I110      1.0  0.17500  0.18701  0.60096  1.0000
  I   I111      1.0  0.13177  0.01818  0.35341  1.0000
  I   I112      1.0  0.07068  0.78620  0.17878  1.0000
  I   I113      1.0  0.11208  0.34607  0.74520  1.0000
  I   I114      1.0  0.37808  0.03407  0.62277  1.0000
  I   I115      1.0  0.41436  0.84380  0.27446  1.0000
  I   I116      1.0  0.44300  0.83804  0.37746  1.0000
  I   I117      1.0  0.15311  0.29154  0.09341  1.0000
  I   I118      1.0  0.63537  0.53025  0.27114  1.0000
  I   I119      1.0  0.58996  0.50352  0.29431  1.0000
  I   I120      1.0  0.30535  0.90469  0.31752  1.0000
  I   I121      1.0  0.90679  0.87498  0.29235  1.0000
  I   I122      1.0  0.68735  0.68544  0.00490  1.0000
  I   I123      1.0  0.50853  0.88121  0.11497  1.0000
  I   I124      1.0  0.81884  0.20574  0.46522  1.0000
  I   I125      1.0  0.74473  0.29208  0.93869  1.0000
  I   I126      1.0  0.81330  0.02899  0.61291  1.0000
  I   I127      1.0  0.33144  0.84708  0.15099  1.0000
  I   I128      1.0  0.80770  0.17116  0.55838  1.0000
  I   I129      1.0  0.66815  0.25271  0.14735  1.0000
  I   I130      1.0  0.85477  0.58161  0.19815  1.0000
  I   I131      1.0  0.53271  0.49350  0.99699  1.0000
  I   I132      1.0  0.72534  0.51783  0.65596  1.0000
  I   I133      1.0  0.93376  0.83543  0.91215  1.0000
  I   I134      1.0  0.52745  0.25318  0.96653  1.0000
  I   I135      1.0  0.47543  0.28484  0.04125  1.0000
  I   I136      1.0  0.87767  0.40698  0.02108  1.0000
  I   I137      1.0  0.53526  0.93231  0.33810  1.0000
  I   I138      1.0  0.61375  0.62653  0.86903  1.0000
  I   I139      1.0  0.35254  0.57589  0.85384  1.0000
  I   I140      1.0  0.88439  0.96774  0.88025  1.0000
  I   I141      1.0  0.79489  0.58676  0.93892  1.0000
  I   I142      1.0  0.50482  0.62244  0.50593  1.0000
  I   I143      1.0  0.36290  0.51186  0.35361  1.0000
  I   I144      1.0  0.14086  0.52038  0.11514  1.0000
  I   I145      1.0  0.51779  0.86302  0.48802  1.0000
  I   I146      1.0  0.47390  0.00901  0.25015  1.0000
  I   I147      1.0  0.82217  0.77092  0.38766  1.0000
  I   I148      1.0  0.06343  0.02289  0.77439  1.0000
  I   I149      1.0  0.82747  0.75006  0.71092  1.0000
  I   I150      1.0  0.46705  0.26092  0.60061  1.0000
  I   I151      1.0  0.87595  0.08117  0.15167  1.0000
  I   I152      1.0  0.47384  0.19623  0.97740  1.0000
  I   I153      1.0  0.25617  0.82372  0.67463  1.0000
  I   I154      1.0  0.67787  0.21830  0.34394  1.0000
  I   I155      1.0  0.97728  0.46801  0.71792  1.0000
  I   I156      1.0  0.13957  0.65191  0.42822  1.0000
  I   I157      1.0  0.56829  0.21407  0.66508  1.0000
  I   I158      1.0  0.06438  0.02720  0.55555  1.0000
  I   I159      1.0  0.64217  0.25313  0.74724  1.0000
  I   I160      1.0  0.07172  0.73058  0.10618  1.0000
  I   I161      1.0  0.30650  0.06822  0.60817  1.0000
  I   I162      1.0  0.16481  0.66420  0.13105  1.0000
  I   I163      1.0  0.36890  0.86328  0.37316  1.0000
  I   I164      1.0  0.10373  0.26657  0.05923  1.0000
  I   I165      1.0  0.26165  0.01742  0.95908  1.0000
  I   I166      1.0  0.64759  0.46873  0.24633  1.0000
  I   I167      1.0  0.55790  0.01927  0.55923  1.0000
  I   I168      1.0  0.02121  0.90210  0.39892  1.0000
  I   I169      1.0  0.61431  0.74408  0.95714  1.0000
  I   I170      1.0  0.72997  0.70664  0.96624  1.0000
  I   I171      1.0  0.98691  0.83958  0.28989  1.0000
  I   I172      1.0  0.83706  0.22767  0.57992  1.0000
  I   I173      1.0  0.81799  0.97256  0.63009  1.0000
  I   I174      1.0  0.93158  0.21498  0.56311  1.0000
  I   I175      1.0  0.81680  0.19868  0.82915  1.0000
  I   I176      1.0  0.72636  0.30996  0.30070  1.0000
  I   I177      1.0  0.58164  0.39937  0.51245  1.0000
  I   I178      1.0  0.56244  0.44513  0.92364  1.0000
  I   I179      1.0  0.70000  0.57324  0.56431  1.0000
  I   I180      1.0  0.83720  0.63313  0.11989  1.0000
  I   I181      1.0  0.94393  0.51546  0.37207  1.0000
  I   I182      1.0  0.45776  0.34639  0.08454  1.0000
  I   I183      1.0  0.99752  0.83034  0.73187  1.0000
  I   I184      1.0  0.60441  0.92814  0.29313  1.0000
  I   I185      1.0  0.57106  0.62963  0.95220  1.0000
  I   I186      1.0  0.85704  0.38340  0.94646  1.0000
  I   I187      1.0  0.81390  0.02942  0.89317  1.0000
  I   I188      1.0  0.83959  0.54020  0.79659  1.0000
  I   I189      1.0  0.34793  0.63674  0.86089  1.0000
  I   I190      1.0  0.30228  0.53181  0.30838  1.0000
  I   I191      1.0  0.13585  0.08479  0.07431  1.0000
  I   I192      1.0  0.57747  0.57738  0.62291  1.0000
  I   I193      1.0  0.56443  0.82034  0.58842  1.0000
  I   I194      1.0  0.13931  0.09482  0.93806  1.0000
  I   I195      1.0  0.82775  0.77002  0.25793  1.0000
  I   I196      1.0  0.15046  0.97063  0.85609  1.0000
  I   I197      1.0  0.67136  0.14803  0.42187  1.0000
  I   I198      1.0  0.42626  0.32986  0.72469  1.0000
  I   I199      1.0  0.82109  0.13018  0.13481  1.0000
  I   I200      1.0  0.41600  0.21967  0.94299  1.0000
  I   I201      1.0  0.32003  0.88341  0.77290  1.0000
  I   I202      1.0  0.45784  0.10676  0.85448  1.0000
  I   I203      1.0  0.24782  0.01504  0.81046  1.0000
  I   I204      1.0  0.08203  0.57374  0.52975  1.0000
  I   I205      1.0  0.15367  0.14321  0.64117  1.0000
  I   I206      1.0  0.10717  0.05045  0.57214  1.0000
  I   I207      1.0  0.57634  0.24584  0.78257  1.0000
  I   I208      1.0  0.68327  0.90205  0.70448  1.0000
  I   I209      1.0  0.35702  0.00347  0.55420  1.0000
  I   I210      1.0  0.14138  0.71483  0.18010  1.0000
  I   I211      1.0  0.43148  0.78268  0.33811  1.0000
  I   I212      1.0  0.45891  0.91669  0.47487  1.0000
  I   I213      1.0  0.27643  0.05002  0.86276  1.0000
  I   I214      1.0  0.67068  0.49741  0.35484  1.0000
  I   I215      1.0  0.50076  0.01378  0.64163  1.0000
  I   I216      1.0  0.03674  0.83003  0.41650  1.0000
  I   I217      1.0  0.66466  0.72981  0.88334  1.0000
  I   I218      1.0  0.45456  0.98173  0.02073  1.0000
  I   I219      1.0  0.91191  0.91499  0.35147  1.0000
  I   I220      1.0  0.68106  0.33931  0.94479  1.0000
  I   I221      1.0  0.77476  0.01944  0.52993  1.0000
  I   I222      1.0  0.88043  0.23937  0.50165  1.0000
  I   I223      1.0  0.76965  0.26824  0.81243  1.0000
  I   I224      1.0  0.76878  0.24631  0.28623  1.0000
  I   I225      1.0  0.38335  0.83221  0.05039  1.0000
  I   I226      1.0  0.51762  0.51603  0.88083  1.0000
  I   I227      1.0  0.75568  0.55355  0.53427  1.0000
  I   I228      1.0  0.84092  0.62456  0.28020  1.0000
  I   I229      1.0  0.02653  0.45606  0.30328  1.0000
  I   I230      1.0  0.55810  0.28693  0.92390  1.0000
  I   I231      1.0  0.98512  0.78407  0.74092  1.0000
  I   I232      1.0  0.10172  0.98293  0.35324  1.0000
  I   I233      1.0  0.63377  0.65631  0.94887  1.0000
  I   I234      1.0  0.83593  0.35559  0.03382  1.0000
  I   I235      1.0  0.69582  0.15474  0.52704  1.0000
  I   I236      1.0  0.73733  0.63539  0.89898  1.0000
  I   I237      1.0  0.29651  0.61582  0.92544  1.0000
  I   I238      1.0  0.34020  0.55283  0.44570  1.0000
  I   I239      1.0  0.10922  0.49223  0.97704  1.0000
  I   I240      1.0  0.56825  0.56716  0.51578  1.0000
  I   I241      1.0  0.66368  0.66206  0.71354  1.0000
  I   I242      1.0  0.48910  0.99617  0.14647  1.0000
  I   I243      1.0  0.80394  0.83631  0.31597  1.0000
  I   I244      1.0  0.08346  0.01624  0.88398  1.0000
  I   I245      1.0  0.32930  0.54554  0.71208  1.0000
  I   I246      1.0  0.42254  0.22631  0.66554  1.0000
  I   I247      1.0  0.84020  0.08257  0.27939  1.0000
  I   I248      1.0  0.51540  0.17330  0.16771  1.0000
  I   I249      1.0  0.20098  0.88071  0.72259  1.0000
  I   I250      1.0  0.45765  0.16413  0.86170  1.0000
  I   I251      1.0  0.93359  0.52817  0.63620  1.0000
  I   I252      1.0  0.17511  0.59224  0.49455  1.0000
  I   I253      1.0  0.22949  0.11465  0.56332  1.0000
  I   I254      1.0  0.11230  0.97847  0.49019  1.0000
  I   I255      1.0  0.63932  0.21440  0.85671  1.0000
  I   I256      1.0  0.12461  0.28114  0.72024  1.0000
  I   I257      1.0  0.34290  0.07944  0.51945  1.0000
  I   I258      1.0  0.08888  0.71703  0.21944  1.0000
  I   I259      1.0  0.41291  0.80367  0.43511  1.0000
  I   I260      1.0  0.07947  0.33086  0.08815  1.0000
  I   I261      1.0  0.20743  0.02430  0.90536  1.0000
  I   I262      1.0  0.70816  0.42437  0.28290  1.0000
  I   I263      1.0  0.54916  0.07902  0.42591  1.0000
  I   I264      1.0  0.08348  0.84365  0.36736  1.0000
  I   I265      1.0  0.67577  0.73456  0.04485  1.0000
  I   I266      1.0  0.46752  0.86433  0.17579  1.0000
  I   I267      1.0  0.98037  0.87863  0.37224  1.0000
  I   I268      1.0  0.68417  0.42768  0.92675  1.0000
  I   I269      1.0  0.89637  0.96298  0.59077  1.0000
  I   I270      1.0  0.81347  0.26459  0.46923  1.0000
  I   I271      1.0  0.81586  0.25419  0.72946  1.0000
  I   I272      1.0  0.66025  0.31985  0.20233  1.0000
  I   I273      1.0  0.31669  0.86988  0.01805  1.0000
  I   I274      1.0  0.57671  0.51384  0.94643  1.0000
  I   I275      1.0  0.71818  0.62676  0.48158  1.0000
  I   I276      1.0  0.79365  0.61636  0.19604  1.0000
  I   I277      1.0  0.03329  0.39476  0.26598  1.0000
  I   I278      1.0  0.53362  0.27318  0.08436  1.0000
  I   I279      1.0  0.99638  0.79220  0.97699  1.0000
  I   I280      1.0  0.59889  0.90582  0.39816  1.0000
  I   I281      1.0  0.52162  0.67514  0.90373  1.0000
  I   I282      1.0  0.85280  0.38235  0.11360  1.0000
  I   I283      1.0  0.63900  0.20231  0.39286  1.0000
  I   I284      1.0  0.76403  0.65090  0.79579  1.0000
  I   I285      1.0  0.36740  0.56938  0.96498  1.0000
  I   I286      1.0  0.29766  0.48260  0.36495  1.0000
  I   I287      1.0  0.09606  0.59876  0.03299  1.0000
  I   I288      1.0  0.57306  0.52141  0.65977  1.0000
  I   I289      1.0  0.64397  0.69845  0.60892  1.0000
  I   I290      1.0  0.08542  0.10387  0.97443  1.0000
  I   I291      1.0  0.51024  0.04953  0.12885  1.0000
  I   I292      1.0  0.02718  0.05077  0.86477  1.0000
  I   I293      1.0  0.28766  0.62519  0.72447  1.0000
  I   I294      1.0  0.48409  0.31331  0.65005  1.0000
  I   I295      1.0  0.79975  0.14621  0.36851  1.0000
  I   I296      1.0  0.45616  0.19451  0.11140  1.0000
  I   I297      1.0  0.28421  0.89786  0.86253  1.0000
  I   I298      1.0  0.72207  0.16590  0.36152  1.0000
  I   I299      1.0  0.70383  0.92367  0.60213  1.0000
  I   I300      1.0  0.10265  0.62122  0.49069  1.0000
  I   I301      1.0  0.61233  0.22973  0.69356  1.0000
  I   I302      1.0  0.21364  0.11344  0.42693  1.0000
  I   I303      1.0  0.14916  0.20264  0.24293  1.0000
  I   I304      1.0  0.10618  0.75893  0.08117  1.0000
  I   I305      1.0  0.74736  0.91311  0.78942  1.0000
  I   I306      1.0  0.50935  0.32175  0.16555  1.0000
  I   I307      1.0  0.40701  0.82843  0.16893  1.0000
  I   I308      1.0  0.41398  0.88655  0.48617  1.0000
  I   I309      1.0  0.29658  0.94756  0.95247  1.0000
  I   I310      1.0  0.64146  0.43861  0.34012  1.0000
  I   I311      1.0  0.50460  0.07785  0.53423  1.0000
  I   I312      1.0  0.26774  0.89650  0.21511  1.0000
  I   I313      1.0  0.94098  0.84145  0.38548  1.0000
  I   I314      1.0  0.67863  0.76884  0.92539  1.0000
  I   I315      1.0  0.41336  0.96575  0.00612  1.0000
  I   I316      1.0  0.88961  0.18846  0.63064  1.0000
  I   I317      1.0  0.74913  0.35296  0.88758  1.0000
  I   I318      1.0  0.86015  0.95687  0.54286  1.0000
  I   I319      1.0  0.51448  0.39542  0.55230  1.0000
  I   I320      1.0  0.84694  0.12258  0.65148  1.0000
  I   I321      1.0  0.73327  0.29613  0.19070  1.0000
  I   I322      1.0  0.47474  0.49730  0.94530  1.0000
  I   I323      1.0  0.69015  0.51776  0.55916  1.0000
  I   I324      1.0  0.81165  0.67854  0.34099  1.0000
  I   I325      1.0  0.90175  0.50638  0.28438  1.0000
  I   I326      1.0  0.46465  0.30080  0.16793  1.0000
  I   I327      1.0  0.99307  0.78285  0.86396  1.0000
  I   I328      1.0  0.17386  0.13987  0.30475  1.0000
  I   I329      1.0  0.54909  0.68057  0.78945  1.0000
  I   I330      1.0  0.91433  0.31974  0.98232  1.0000
  I   I331      1.0  0.33069  0.64014  0.97333  1.0000
  I   I332      1.0  0.63809  0.17470  0.54822  1.0000
  I   I333      1.0  0.82422  0.52214  0.91841  1.0000
  I   I334      1.0  0.60110  0.51509  0.56212  1.0000
  I   I335      1.0  0.37829  0.49449  0.48355  1.0000
  I   I336      1.0  0.13114  0.58605  0.13709  1.0000
  I   I337      1.0  0.59826  0.83195  0.48232  1.0000
  I   I338      1.0  0.08819  0.15406  0.04956  1.0000
  I   I339      1.0  0.45727  0.07156  0.20337  1.0000
  I   I340      1.0  0.13363  0.92183  0.92165  1.0000
  I   I341      1.0  0.78293  0.81183  0.74621  1.0000
  I   I342      1.0  0.43032  0.33292  0.59506  1.0000
  I   I343      1.0  0.86419  0.12955  0.35218  1.0000
  I   I344      1.0  0.40817  0.20241  0.06307  1.0000
  I   I345      1.0  0.30380  0.83450  0.74410  1.0000
  I   I346      1.0  0.65966  0.21676  0.51805  1.0000
  I   I347      1.0  0.43340  0.12981  0.96104  1.0000
  I   I348      1.0  0.05578  0.58252  0.43208  1.0000
  I   I349      1.0  0.63127  0.17750  0.75504  1.0000
  I   I350      1.0  0.20968  0.07153  0.51485  1.0000
  I   I351      1.0  0.15458  0.95701  0.39530  1.0000
  I   I352      1.0  0.14035  0.65615  0.25553  1.0000
  I   I353      1.0  0.06384  0.31528  0.73587  1.0000
  I   I354      1.0  0.42747  0.35058  0.24566  1.0000
  I   I355      1.0  0.37943  0.80847  0.27487  1.0000
  I   I356      1.0  0.11005  0.27923  0.18100  1.0000
  I   I357      1.0  0.24758  0.96400  0.00838  1.0000
  I   I358      1.0  0.03879  0.85856  0.28714  1.0000
  I   I359      1.0  0.54600  0.02316  0.45631  1.0000
  I   I360      1.0  0.23752  0.91265  0.33723  1.0000
  I   I361      1.0  0.96082  0.78798  0.30660  1.0000
  I   I362      1.0  0.61438  0.79442  0.87596  1.0000
  I   I363      1.0  0.48346  0.91156  0.21856  1.0000
  I   I364      1.0  0.87578  0.25642  0.62506  1.0000
  I   I365      1.0  0.72504  0.42667  0.98788  1.0000
  I   I366      1.0  0.82166  0.03218  0.50798  1.0000
  I   I367      1.0  0.53691  0.40532  0.42568  1.0000
  I   I368      1.0  0.80132  0.11558  0.56231  1.0000
  I   I369      1.0  0.71826  0.23859  0.20785  1.0000
  I   I370      1.0  0.46706  0.57033  0.95528  1.0000
  I   I371      1.0  0.75162  0.56385  0.43384  1.0000
  I   I372      1.0  0.83928  0.66270  0.21007  1.0000
  I   I373      1.0  0.00585  0.44437  0.18622  1.0000
  I   I374      1.0  0.58978  0.26057  0.02118  1.0000
  I   I375      1.0  0.04716  0.77663  0.76840  1.0000
  I   I376      1.0  0.58837  0.87218  0.28753  1.0000
  I   I377      1.0  0.58061  0.66739  0.02632  1.0000
  I   I378      1.0  0.80200  0.42170  0.04438  1.0000
  I   I379      1.0  0.26378  0.67620  0.94899  1.0000
  I   I380      1.0  0.84864  0.99695  0.99882  1.0000
  I   I381      1.0  0.77454  0.57774  0.84473  1.0000
  I   I382      1.0  0.52257  0.60429  0.63588  1.0000
  I   I383      1.0  0.35516  0.46198  0.41073  1.0000
  I   I384      1.0  0.12430  0.53609  0.01731  1.0000
