data_image0
_chemical_formula_structural       Ti96I384
_chemical_formula_sum              "Ti96 I384"
_cell_length_a       63.2071
_cell_length_b       63.0035
_cell_length_c       30.7649
_cell_angle_alpha    88.7757
_cell_angle_beta     88.7757
_cell_angle_gamma    62.1586

_space_group_name_H-M_alt    "P 1"
_space_group_IT_number       1

loop_
  _space_group_symop_operation_xyz
  'x, y, z'

loop_
  _atom_site_type_symbol
  _atom_site_label
  _atom_site_symmetry_multiplicity
  _atom_site_fract_x
  _atom_site_fract_y
  _atom_site_fract_z
  _atom_site_occupancy
  Ti  Ti1       1.0  0.58434  0.90287  0.57568  1.0000
  Ti  Ti2       1.0  0.51263  0.11534  0.34742  1.0000
  Ti  Ti3       1.0  0.97526  0.50836  0.00798  1.0000
  Ti  Ti4       1.0  0.62731  0.33967  0.03407  1.0000
  Ti  Ti5       1.0  0.21819  0.83770  0.96389  1.0000
  Ti  Ti6       1.0  0.27199  0.20910  0.46041  1.0000
  Ti  Ti7       1.0  0.07357  0.82167  0.88440  1.0000
  Ti  Ti8       1.0  0.31596  0.49115  0.12507  1.0000
  Ti  Ti9       1.0  0.28216  0.91021  0.90550  1.0000
  Ti  Ti10      1.0  0.83404  0.72568  0.11689  1.0000
  Ti  Ti11      1.0  0.35851  0.47200  0.83678  1.0000
  Ti  Ti12      1.0  0.26425  0.61572  0.49792  1.0000
  Ti  Ti13      1.0  0.24191  0.42283  0.24108  1.0000
  Ti  Ti14      1.0  0.11295  0.97508  0.82885  1.0000
  Ti  Ti15      1.0  0.41349  0.95126  0.13477  1.0000
  Ti  Ti16      1.0  0.74631  0.76084  0.63798  1.0000
  Ti  Ti17      1.0  0.23528  0.28137  0.17875  1.0000
  Ti  Ti18      1.0  0.91591  0.61791  0.68544  1.0000
  Ti  Ti19      1.0  0.85378  0.87124  0.50325  1.0000
  Ti  Ti20      1.0  0.22113  0.04143  0.31952  1.0000
  Ti  Ti21      1.0  0.87497  0.18433  0.29818  1.0000
  Ti  Ti22      1.0  0.58735  0.56375  0.01545  1.0000
  Ti  Ti23      1.0  0.74707  0.88451  0.88902  1.0000
  Ti  Ti24      1.0  0.23533  0.71453  0.68081  1.0000
  Ti  Ti25      1.0  0.10367  0.39312  0.64894  1.0000
  Ti  Ti26      1.0  0.05782  0.11131  0.19837  1.0000
  Ti  Ti27      1.0  0.11942  0.69173  0.92800  1.0000
  Ti  Ti28      1.0  0.59442  0.48461  0.36634  1.0000
  Ti  Ti29      1.0  0.06528  0.96434  0.08599  1.0000
  Ti  Ti30      1.0  0.86280  0.47355  0.18555  1.0000
  Ti  Ti31      1.0  0.77730  0.39870  0.64011  1.0000
  Ti  Ti32      1.0  0.71121  0.05093  0.15680  1.0000
  Ti  Ti33      1.0  0.33575  0.91859  0.42851  1.0000
  Ti  Ti34      1.0  0.67014  0.65229  0.91461  1.0000
  Ti  Ti35      1.0  0.86507  0.45202  0.89807  1.0000
  Ti  Ti36      1.0  0.01718  0.52042  0.45850  1.0000
  Ti  Ti37      1.0  0.07668  0.24010  0.42580  1.0000
  Ti  Ti38      1.0  0.39902  0.37623  0.57749  1.0000
  Ti  Ti39      1.0  0.58121  0.28481  0.18186  1.0000
  Ti  Ti40      1.0  0.66597  0.74931  0.24830  1.0000
  Ti  Ti41      1.0  0.55277  0.72691  0.43605  1.0000
  Ti  Ti42      1.0  0.66789  0.06118  0.74115  1.0000
  Ti  Ti43      1.0  0.43355  0.10215  0.08228  1.0000
  Ti  Ti44      1.0  0.81993  0.60269  0.01882  1.0000
  Ti  Ti45      1.0  0.39926  0.68432  0.91522  1.0000
  Ti  Ti46      1.0  0.18030  0.30644  0.94379  1.0000
  Ti  Ti47      1.0  0.01512  0.17707  0.88976  1.0000
  Ti  Ti48      1.0  0.41503  0.59694  0.54581  1.0000
  Ti  Ti49      1.0  0.56053  0.90403  0.46079  1.0000
  Ti  Ti50      1.0  0.38679  0.01841  0.56671  1.0000
  Ti  Ti51      1.0  0.52717  0.14778  0.25008  1.0000
  Ti  Ti52      1.0  0.69470  0.34641  0.00359  1.0000
  Ti  Ti53      1.0  0.23964  0.72570  0.08791  1.0000
  Ti  Ti54      1.0  0.26970  0.15024  0.45842  1.0000
  Ti  Ti55      1.0  0.01847  0.84786  0.92525  1.0000
  Ti  Ti56      1.0  0.34520  0.53398  0.19176  1.0000
  Ti  Ti57      1.0  0.33510  0.90077  0.82862  1.0000
  Ti  Ti58      1.0  0.45276  0.05344  0.02862  1.0000
  Ti  Ti59      1.0  0.85515  0.71889  0.22577  1.0000
  Ti  Ti60      1.0  0.29960  0.55662  0.53829  1.0000
  Ti  Ti61      1.0  0.46048  0.95370  0.20891  1.0000
  Ti  Ti62      1.0  0.27591  0.37522  0.32837  1.0000
  Ti  Ti63      1.0  0.13900  0.92268  0.72039  1.0000
  Ti  Ti64      1.0  0.90653  0.65119  0.58218  1.0000
  Ti  Ti65      1.0  0.03222  0.57217  0.89972  1.0000
  Ti  Ti66      1.0  0.39883  0.45568  0.40902  1.0000
  Ti  Ti67      1.0  0.89634  0.89160  0.48398  1.0000
  Ti  Ti68      1.0  0.22619  0.04250  0.65099  1.0000
  Ti  Ti69      1.0  0.84999  0.21490  0.18392  1.0000
  Ti  Ti70      1.0  0.63592  0.57270  0.06402  1.0000
  Ti  Ti71      1.0  0.75184  0.90425  0.00005  1.0000
  Ti  Ti72      1.0  0.84241  0.02647  0.11144  1.0000
  Ti  Ti73      1.0  0.11991  0.64355  0.93659  1.0000
  Ti  Ti74      1.0  0.15715  0.40658  0.63233  1.0000
  Ti  Ti75      1.0  0.07188  0.11063  0.30576  1.0000
  Ti  Ti76      1.0  0.90832  0.41442  0.16404  1.0000
  Ti  Ti77      1.0  0.52620  0.49711  0.36172  1.0000
  Ti  Ti78      1.0  0.07692  0.98065  0.20237  1.0000
  Ti  Ti79      1.0  0.28935  0.92529  0.49773  1.0000
  Ti  Ti80      1.0  0.80206  0.41799  0.58242  1.0000
  Ti  Ti81      1.0  0.66275  0.09462  0.11533  1.0000
  Ti  Ti82      1.0  0.62669  0.70157  0.83763  1.0000
  Ti  Ti83      1.0  0.86712  0.50426  0.88077  1.0000
  Ti  Ti84      1.0  0.96820  0.54655  0.38530  1.0000
  Ti  Ti85      1.0  0.09784  0.27463  0.49211  1.0000
  Ti  Ti86      1.0  0.40146  0.42103  0.50652  1.0000
  Ti  Ti87      1.0  0.50982  0.34018  0.17483  1.0000
  Ti  Ti88      1.0  0.68626  0.74114  0.38411  1.0000
  Ti  Ti89      1.0  0.52193  0.74567  0.52450  1.0000
  Ti  Ti90      1.0  0.73961  0.04414  0.81174  1.0000
  Ti  Ti91      1.0  0.37113  0.75417  0.83388  1.0000
  Ti  Ti92      1.0  0.87034  0.14454  0.57204  1.0000
  Ti  Ti93      1.0  0.76448  0.63449  0.06227  1.0000
  Ti  Ti94      1.0  0.46791  0.52985  0.58163  1.0000
  Ti  Ti95      1.0  0.12646  0.28762  0.00239  1.0000
  Ti  Ti96      1.0  0.04453  0.12881  0.93915  1.0000
  I   I1        1.0  0.07175  0.14469  0.89745  1.0000
  I   I2        1.0  0.55617  0.09886  0.24630  1.0000
  I   I3        1.0  0.53975  0.91310  0.56198  1.0000
  I   I4        1.0  0.19933  0.72770  0.08309  1.0000
  I   I5        1.0  0.26891  0.21260  0.37095  1.0000
  I   I6        1.0  0.28616  0.17329  0.51773  1.0000
  I   I7        1.0  0.34531  0.54877  0.11090  1.0000
  I   I8        1.0  0.30332  0.53793  0.16567  1.0000
  I   I9        1.0  0.36838  0.85947  0.79745  1.0000
  I   I10       1.0  0.87405  0.73266  0.14881  1.0000
  I   I11       1.0  0.34627  0.51311  0.79447  1.0000
  I   I12       1.0  0.25097  0.85193  0.94762  1.0000
  I   I13       1.0  0.26594  0.42230  0.34294  1.0000
  I   I14       1.0  0.17611  0.92609  0.70179  1.0000
  I   I15       1.0  0.40593  0.93999  0.05710  1.0000
  I   I16       1.0  0.71837  0.80679  0.64309  1.0000
  I   I17       1.0  0.41370  0.48999  0.39573  1.0000
  I   I18       1.0  0.92128  0.68618  0.57421  1.0000
  I   I19       1.0  0.23763  0.07088  0.30249  1.0000
  I   I20       1.0  0.31520  0.47334  0.84750  1.0000
  I   I21       1.0  0.88347  0.21921  0.26366  1.0000
  I   I22       1.0  0.77380  0.87260  0.06552  1.0000
  I   I23       1.0  0.78256  0.88783  0.92831  1.0000
  I   I24       1.0  0.61289  0.59586  0.99261  1.0000
  I   I25       1.0  0.14014  0.44116  0.68810  1.0000
  I   I26       1.0  0.09829  0.07683  0.24322  1.0000
  I   I27       1.0  0.15364  0.70196  0.91911  1.0000
  I   I28       1.0  0.51660  0.46919  0.40982  1.0000
  I   I29       1.0  0.04565  0.00596  0.13218  1.0000
  I   I30       1.0  0.90495  0.42187  0.07889  1.0000
  I   I31       1.0  0.82430  0.44597  0.58735  1.0000
  I   I32       1.0  0.69970  0.09510  0.07159  1.0000
  I   I33       1.0  0.29402  0.90949  0.58801  1.0000
  I   I34       1.0  0.84750  0.48545  0.95742  1.0000
  I   I35       1.0  0.92769  0.54455  0.39556  1.0000
  I   I36       1.0  0.67644  0.67570  0.98135  1.0000
  I   I37       1.0  0.04222  0.23681  0.39939  1.0000
  I   I38       1.0  0.53373  0.29054  0.21313  1.0000
  I   I39       1.0  0.06352  0.28571  0.42119  1.0000
  I   I40       1.0  0.49804  0.78243  0.57507  1.0000
  I   I41       1.0  0.73923  0.04258  0.89773  1.0000
  I   I42       1.0  0.63065  0.76291  0.19417  1.0000
  I   I43       1.0  0.43510  0.10779  0.98758  1.0000
  I   I44       1.0  0.72368  0.63041  0.04513  1.0000
  I   I45       1.0  0.37700  0.75618  0.75014  1.0000
  I   I46       1.0  0.22085  0.27520  0.97822  1.0000
  I   I47       1.0  0.00256  0.14195  0.97601  1.0000
  I   I48       1.0  0.38298  0.63347  0.59315  1.0000
  I   I49       1.0  0.59156  0.88882  0.39139  1.0000
  I   I50       1.0  0.48056  0.13989  0.27440  1.0000
  I   I51       1.0  0.53101  0.06961  0.33572  1.0000
  I   I52       1.0  0.65309  0.29371  0.04974  1.0000
  I   I53       1.0  0.23810  0.75612  0.02414  1.0000
  I   I54       1.0  0.28666  0.14302  0.37706  1.0000
  I   I55       1.0  0.05296  0.80270  0.82722  1.0000
  I   I56       1.0  0.31627  0.57693  0.21963  1.0000
  I   I57       1.0  0.28745  0.87974  0.84968  1.0000
  I   I58       1.0  0.82343  0.69533  0.07900  1.0000
  I   I59       1.0  0.82622  0.75639  0.04935  1.0000
  I   I60       1.0  0.24721  0.58058  0.49293  1.0000
  I   I61       1.0  0.29052  0.37494  0.24618  1.0000
  I   I62       1.0  0.31425  0.35466  0.37286  1.0000
  I   I63       1.0  0.12376  0.96832  0.91505  1.0000
  I   I64       1.0  0.72727  0.73725  0.59165  1.0000
  I   I65       1.0  0.04857  0.55789  0.97875  1.0000
  I   I66       1.0  0.35692  0.49648  0.40152  1.0000
  I   I67       1.0  0.90358  0.92865  0.49159  1.0000
  I   I68       1.0  0.21092  0.05989  0.39918  1.0000
  I   I69       1.0  0.83399  0.21638  0.32675  1.0000
  I   I70       1.0  0.61833  0.55817  0.12951  1.0000
  I   I71       1.0  0.71550  0.86761  0.91113  1.0000
  I   I72       1.0  0.81864  0.00353  0.09220  1.0000
  I   I73       1.0  0.08363  0.73193  0.95063  1.0000
  I   I74       1.0  0.01733  0.15246  0.18471  1.0000
  I   I75       1.0  0.10886  0.11774  0.31491  1.0000
  I   I76       1.0  0.57952  0.45180  0.36035  1.0000
  I   I77       1.0  0.50870  0.48910  0.29510  1.0000
  I   I78       1.0  0.09085  0.95786  0.01616  1.0000
  I   I79       1.0  0.34020  0.88274  0.48260  1.0000
  I   I80       1.0  0.80176  0.36092  0.59723  1.0000
  I   I81       1.0  0.75675  0.02716  0.12589  1.0000
  I   I82       1.0  0.67532  0.61879  0.96782  1.0000
  I   I83       1.0  0.83076  0.54628  0.88086  1.0000
  I   I84       1.0  0.02551  0.52073  0.55070  1.0000
  I   I85       1.0  0.10655  0.20094  0.46798  1.0000
  I   I86       1.0  0.36403  0.42947  0.55410  1.0000
  I   I87       1.0  0.61494  0.29280  0.15964  1.0000
  I   I88       1.0  0.70424  0.74511  0.30060  1.0000
  I   I89       1.0  0.57090  0.74858  0.49949  1.0000
  I   I90       1.0  0.69754  0.08328  0.77766  1.0000
  I   I91       1.0  0.38044  0.70821  0.82488  1.0000
  I   I92       1.0  0.86071  0.14125  0.65381  1.0000
  I   I93       1.0  0.80067  0.57740  0.99031  1.0000
  I   I94       1.0  0.44920  0.54798  0.49992  1.0000
  I   I95       1.0  0.08408  0.32265  0.01797  1.0000
  I   I96       1.0  0.05945  0.12880  0.02118  1.0000
  I   I97       1.0  0.95944  0.52028  0.08991  1.0000
  I   I98       1.0  0.58896  0.86616  0.52340  1.0000
  I   I99       1.0  0.55150  0.11641  0.37902  1.0000
  I   I100      1.0  0.70790  0.33069  0.92709  1.0000
  I   I101      1.0  0.60458  0.36312  0.10341  1.0000
  I   I102      1.0  0.23011  0.79779  0.92453  1.0000
  I   I103      1.0  0.10565  0.77980  0.91439  1.0000
  I   I104      1.0  0.99761  0.87731  0.99402  1.0000
  I   I105      1.0  0.33020  0.88714  0.90942  1.0000
  I   I106      1.0  0.29441  0.52170  0.48453  1.0000
  I   I107      1.0  0.86850  0.74475  0.28089  1.0000
  I   I108      1.0  0.28107  0.60427  0.58315  1.0000
  I   I109      1.0  0.42573  0.93109  0.21353  1.0000
  I   I110      1.0  0.23832  0.41676  0.15684  1.0000
  I   I111      1.0  0.06368  0.99723  0.83324  1.0000
  I   I112      1.0  0.86378  0.67827  0.60512  1.0000
  I   I113      1.0  0.05011  0.53360  0.85183  1.0000
  I   I114      1.0  0.26844  0.24537  0.21698  1.0000
  I   I115      1.0  0.81388  0.91210  0.47537  1.0000
  I   I116      1.0  0.86842  0.91129  0.41707  1.0000
  I   I117      1.0  0.25635  0.02560  0.58478  1.0000
  I   I118      1.0  0.63298  0.61116  0.10574  1.0000
  I   I119      1.0  0.55007  0.60156  0.99125  1.0000
  I   I120      1.0  0.88474  0.99182  0.10547  1.0000
  I   I121      1.0  0.10355  0.62874  0.99892  1.0000
  I   I122      1.0  0.08230  0.43207  0.69248  1.0000
  I   I123      1.0  0.06361  0.07503  0.15546  1.0000
  I   I124      1.0  0.82144  0.47860  0.20645  1.0000
  I   I125      1.0  0.60998  0.51156  0.40092  1.0000
  I   I126      1.0  0.10969  0.94577  0.14570  1.0000
  I   I127      1.0  0.34044  0.94710  0.36646  1.0000
  I   I128      1.0  0.73213  0.40178  0.64199  1.0000
  I   I129      1.0  0.63097  0.10420  0.05606  1.0000
  I   I130      1.0  0.00650  0.55931  0.40406  1.0000
  I   I131      1.0  0.67181  0.68985  0.84685  1.0000
  I   I132      1.0  0.87238  0.53506  0.93501  1.0000
  I   I133      1.0  0.59354  0.27747  0.25902  1.0000
  I   I134      1.0  0.43362  0.33008  0.59335  1.0000
  I   I135      1.0  0.43732  0.39246  0.57168  1.0000
  I   I136      1.0  0.63543  0.08376  0.80105  1.0000
  I   I137      1.0  0.65813  0.75480  0.45547  1.0000
  I   I138      1.0  0.53363  0.71392  0.37833  1.0000
  I   I139      1.0  0.42319  0.66844  0.98846  1.0000
  I   I140      1.0  0.89451  0.16964  0.56939  1.0000
  I   I141      1.0  0.77471  0.64656  0.98466  1.0000
  I   I142      1.0  0.44557  0.61443  0.54514  1.0000
  I   I143      1.0  0.15619  0.26735  0.06613  1.0000
  I   I144      1.0  0.02421  0.13593  0.84321  1.0000
  I   I145      1.0  0.52659  0.89680  0.43412  1.0000
  I   I146      1.0  0.48179  0.13290  0.41361  1.0000
  I   I147      1.0  0.94270  0.51226  0.96096  1.0000
  I   I148      1.0  0.66798  0.34060  0.07161  1.0000
  I   I149      1.0  0.18486  0.86908  0.91245  1.0000
  I   I150      1.0  0.30899  0.10756  0.47408  1.0000
  I   I151      1.0  0.05969  0.83081  0.97383  1.0000
  I   I152      1.0  0.32178  0.49306  0.04155  1.0000
  I   I153      1.0  0.23521  0.93766  0.91013  1.0000
  I   I154      1.0  0.44244  0.05696  0.12108  1.0000
  I   I155      1.0  0.37338  0.44284  0.77099  1.0000
  I   I156      1.0  0.29222  0.53444  0.60262  1.0000
  I   I157      1.0  0.36572  0.97618  0.14425  1.0000
  I   I158      1.0  0.17191  0.87711  0.73764  1.0000
  I   I159      1.0  0.43677  0.98695  0.26752  1.0000
  I   I160      1.0  0.89672  0.64259  0.50710  1.0000
  I   I161      1.0  0.19873  0.30204  0.23185  1.0000
  I   I162      1.0  0.94865  0.60307  0.60800  1.0000
  I   I163      1.0  0.93792  0.87126  0.44932  1.0000
  I   I164      1.0  0.23831  0.07052  0.69172  1.0000
  I   I165      1.0  0.82379  0.26151  0.20006  1.0000
  I   I166      1.0  0.59720  0.54335  0.94238  1.0000
  I   I167      1.0  0.77691  0.83768  0.88157  1.0000
  I   I168      1.0  0.27148  0.70111  0.63104  1.0000
  I   I169      1.0  0.14167  0.37992  0.58434  1.0000
  I   I170      1.0  0.08649  0.37023  0.70497  1.0000
  I   I171      1.0  0.11722  0.61404  0.86945  1.0000
  I   I172      1.0  0.85721  0.51299  0.21029  1.0000
  I   I173      1.0  0.10704  0.99883  0.21042  1.0000
  I   I174      1.0  0.91272  0.45622  0.17265  1.0000
  I   I175      1.0  0.76516  0.42120  0.53411  1.0000
  I   I176      1.0  0.63313  0.13710  0.14673  1.0000
  I   I177      1.0  0.29256  0.93059  0.40345  1.0000
  I   I178      1.0  0.61221  0.70208  0.75726  1.0000
  I   I179      1.0  0.84102  0.48444  0.82354  1.0000
  I   I180      1.0  0.94860  0.58933  0.35962  1.0000
  I   I181      1.0  0.13863  0.24644  0.53013  1.0000
  I   I182      1.0  0.39861  0.46514  0.52124  1.0000
  I   I183      1.0  0.58395  0.25132  0.13587  1.0000
  I   I184      1.0  0.64570  0.76057  0.33414  1.0000
  I   I185      1.0  0.58509  0.68293  0.45861  1.0000
  I   I186      1.0  0.76884  0.00413  0.77483  1.0000
  I   I187      1.0  0.88604  0.10321  0.53596  1.0000
  I   I188      1.0  0.85402  0.56494  0.04739  1.0000
  I   I189      1.0  0.35531  0.69186  0.93416  1.0000
  I   I190      1.0  0.19517  0.30771  0.85876  1.0000
  I   I191      1.0  0.35598  0.06584  0.57100  1.0000
  I   I192      1.0  0.48008  0.52974  0.66587  1.0000
  I   I193      1.0  0.55029  0.94733  0.43922  1.0000
  I   I194      1.0  0.35807  0.00285  0.53017  1.0000
  I   I195      1.0  0.00508  0.52479  0.00008  1.0000
  I   I196      1.0  0.59149  0.33861  0.99329  1.0000
  I   I197      1.0  0.39524  0.14570  0.07056  1.0000
  I   I198      1.0  0.22915  0.19790  0.46194  1.0000
  I   I199      1.0  0.03780  0.87250  0.86898  1.0000
  I   I200      1.0  0.38508  0.53207  0.21801  1.0000
  I   I201      1.0  0.28571  0.88978  0.98710  1.0000
  I   I202      1.0  0.85531  0.68566  0.16775  1.0000
  I   I203      1.0  0.90323  0.17040  0.36929  1.0000
  I   I204      1.0  0.21651  0.64234  0.49747  1.0000
  I   I205      1.0  0.27585  0.33402  0.31552  1.0000
  I   I206      1.0  0.12994  0.93002  0.82215  1.0000
  I   I207      1.0  0.46258  0.93412  0.12005  1.0000
  I   I208      1.0  0.78201  0.74919  0.58581  1.0000
  I   I209      1.0  0.21850  0.26970  0.11191  1.0000
  I   I210      1.0  0.92841  0.65081  0.66092  1.0000
  I   I211      1.0  0.90438  0.84402  0.50790  1.0000
  I   I212      1.0  0.24631  0.00195  0.27019  1.0000
  I   I213      1.0  0.89463  0.19202  0.14930  1.0000
  I   I214      1.0  0.68231  0.55039  0.06784  1.0000
  I   I215      1.0  0.74826  0.90643  0.81550  1.0000
  I   I216      1.0  0.23612  0.68018  0.73391  1.0000
  I   I217      1.0  0.07265  0.40133  0.59288  1.0000
  I   I218      1.0  0.04160  0.15312  0.32361  1.0000
  I   I219      1.0  0.16570  0.61434  0.95172  1.0000
  I   I220      1.0  0.55689  0.50314  0.43230  1.0000
  I   I221      1.0  0.08372  0.91847  0.11555  1.0000
  I   I222      1.0  0.84765  0.47747  0.10235  1.0000
  I   I223      1.0  0.81963  0.41310  0.66777  1.0000
  I   I224      1.0  0.65751  0.06222  0.17434  1.0000
  I   I225      1.0  0.36117  0.92850  0.47595  1.0000
  I   I226      1.0  0.60518  0.74669  0.83964  1.0000
  I   I227      1.0  0.90029  0.41251  0.93657  1.0000
  I   I228      1.0  0.06008  0.49617  0.42695  1.0000
  I   I229      1.0  0.07535  0.31676  0.54575  1.0000
  I   I230      1.0  0.38999  0.39612  0.65214  1.0000
  I   I231      1.0  0.49036  0.37884  0.11992  1.0000
  I   I232      1.0  0.68903  0.70343  0.25614  1.0000
  I   I233      1.0  0.57574  0.73934  0.37582  1.0000
  I   I234      1.0  0.66994  0.07036  0.65610  1.0000
  I   I235      1.0  0.49581  0.02063  0.99325  1.0000
  I   I236      1.0  0.73591  0.67063  0.10891  1.0000
  I   I237      1.0  0.42048  0.64994  0.85735  1.0000
  I   I238      1.0  0.16819  0.35262  0.95636  1.0000
  I   I239      1.0  0.06269  0.08336  0.91358  1.0000
  I   I240      1.0  0.50220  0.54061  0.54945  1.0000
  I   I241      1.0  0.57188  0.90565  0.66237  1.0000
  I   I242      1.0  0.50858  0.15731  0.17427  1.0000
  I   I243      1.0  0.00561  0.46420  0.00350  1.0000
  I   I244      1.0  0.73746  0.31998  0.03762  1.0000
  I   I245      1.0  0.24722  0.70975  0.16748  1.0000
  I   I246      1.0  0.23863  0.25050  0.49012  1.0000
  I   I247      1.0  0.01475  0.81028  0.93388  1.0000
  I   I248      1.0  0.32599  0.44619  0.14651  1.0000
  I   I249      1.0  0.35509  0.93015  0.83286  1.0000
  I   I250      1.0  0.83811  0.70004  0.28227  1.0000
  I   I251      1.0  0.39996  0.45950  0.87968  1.0000
  I   I252      1.0  0.30446  0.57827  0.45900  1.0000
  I   I253      1.0  0.20214  0.46027  0.24784  1.0000
  I   I254      1.0  0.12367  0.90873  0.65457  1.0000
  I   I255      1.0  0.48444  0.97683  0.17168  1.0000
  I   I256      1.0  0.05224  0.59619  0.86417  1.0000
  I   I257      1.0  0.24298  0.31888  0.17388  1.0000
  I   I258      1.0  0.88967  0.60314  0.64516  1.0000
  I   I259      1.0  0.85708  0.85240  0.42568  1.0000
  I   I260      1.0  0.23425  0.99990  0.68777  1.0000
  I   I261      1.0  0.91464  0.14241  0.28056  1.0000
  I   I262      1.0  0.57129  0.53774  0.05890  1.0000
  I   I263      1.0  0.71577  0.92969  0.93296  1.0000
  I   I264      1.0  0.19831  0.72103  0.63976  1.0000
  I   I265      1.0  0.16334  0.42994  0.56349  1.0000
  I   I266      1.0  0.03338  0.10316  0.26863  1.0000
  I   I267      1.0  0.07630  0.68871  0.90498  1.0000
  I   I268      1.0  0.56266  0.51778  0.30663  1.0000
  I   I269      1.0  0.08698  0.95066  0.27751  1.0000
  I   I270      1.0  0.95630  0.38673  0.15829  1.0000
  I   I271      1.0  0.75430  0.44987  0.62637  1.0000
  I   I272      1.0  0.68952  0.04346  0.08092  1.0000
  I   I273      1.0  0.36762  0.88837  0.36305  1.0000
  I   I274      1.0  0.71703  0.62821  0.89072  1.0000
  I   I275      1.0  0.84885  0.42385  0.86993  1.0000
  I   I276      1.0  0.99884  0.49078  0.42263  1.0000
  I   I277      1.0  0.05844  0.26486  0.50987  1.0000
  I   I278      1.0  0.40988  0.37487  0.48491  1.0000
  I   I279      1.0  0.55072  0.31710  0.11271  1.0000
  I   I280      1.0  0.72495  0.73394  0.42616  1.0000
  I   I281      1.0  0.50353  0.76882  0.44942  1.0000
  I   I282      1.0  0.69749  0.03011  0.80742  1.0000
  I   I283      1.0  0.44165  0.01628  0.04033  1.0000
  I   I284      1.0  0.83887  0.61689  0.96206  1.0000
  I   I285      1.0  0.41470  0.71797  0.89457  1.0000
  I   I286      1.0  0.15466  0.28194  0.91969  1.0000
  I   I287      1.0  0.01673  0.18935  0.97467  1.0000
  I   I288      1.0  0.39230  0.61129  0.47590  1.0000
  I   I289      1.0  0.62230  0.87595  0.63177  1.0000
  I   I290      1.0  0.43318  0.99380  0.55571  1.0000
  I   I291      1.0  0.50193  0.18672  0.30269  1.0000
  I   I292      1.0  0.69476  0.38818  0.02043  1.0000
  I   I293      1.0  0.25924  0.68601  0.04999  1.0000
  I   I294      1.0  0.30519  0.22027  0.43771  1.0000
  I   I295      1.0  0.10910  0.81830  0.83410  1.0000
  I   I296      1.0  0.35928  0.48795  0.15157  1.0000
  I   I297      1.0  0.28833  0.94457  0.86781  1.0000
  I   I298      1.0  0.48406  0.07215  0.05877  1.0000
  I   I299      1.0  0.80494  0.75127  0.17720  1.0000
  I   I300      1.0  0.34870  0.52788  0.53399  1.0000
  I   I301      1.0  0.41212  0.99412  0.14057  1.0000
  I   I302      1.0  0.22800  0.39788  0.30009  1.0000
  I   I303      1.0  0.13972  0.99429  0.80447  1.0000
  I   I304      1.0  0.94526  0.57140  0.71174  1.0000
  I   I305      1.0  0.76393  0.73647  0.71005  1.0000
  I   I306      1.0  0.36409  0.43480  0.43587  1.0000
  I   I307      1.0  0.84506  0.84319  0.55111  1.0000
  I   I308      1.0  0.18225  0.05040  0.28235  1.0000
  I   I309      1.0  0.85257  0.17801  0.22797  1.0000
  I   I310      1.0  0.64133  0.52991  0.02485  1.0000
  I   I311      1.0  0.75954  0.93987  0.01085  1.0000
  I   I312      1.0  0.83505  0.06834  0.07204  1.0000
  I   I313      1.0  0.12756  0.67075  0.00617  1.0000
  I   I314      1.0  0.14811  0.37402  0.69351  1.0000
  I   I315      1.0  0.07895  0.13639  0.17274  1.0000
  I   I316      1.0  0.88334  0.42899  0.23885  1.0000
  I   I317      1.0  0.62448  0.47726  0.30224  1.0000
  I   I318      1.0  0.03754  0.00128  0.24426  1.0000
  I   I319      1.0  0.24072  0.94634  0.49787  1.0000
  I   I320      1.0  0.83842  0.38801  0.52351  1.0000
  I   I321      1.0  0.72101  0.01346  0.21710  1.0000
  I   I322      1.0  0.60266  0.69277  0.90646  1.0000
  I   I323      1.0  0.90314  0.46026  0.89521  1.0000
  I   I324      1.0  0.96992  0.55197  0.49202  1.0000
  I   I325      1.0  0.10131  0.30995  0.44941  1.0000
  I   I326      1.0  0.43670  0.42049  0.44959  1.0000
  I   I327      1.0  0.53948  0.34660  0.22374  1.0000
  I   I328      1.0  0.69186  0.75805  0.19098  1.0000
  I   I329      1.0  0.54562  0.72566  0.60254  1.0000
  I   I330      1.0  0.65887  0.02986  0.69905  1.0000
  I   I331      1.0  0.32400  0.77905  0.81539  1.0000
  I   I332      1.0  0.39644  0.09109  0.05995  1.0000
  I   I333      1.0  0.77636  0.59508  0.11963  1.0000
  I   I334      1.0  0.47965  0.48576  0.55843  1.0000
  I   I335      1.0  0.14647  0.31981  0.00905  1.0000
  I   I336      1.0  0.96860  0.19015  0.88680  1.0000
  I   I337      1.0  0.59460  0.93776  0.54010  1.0000
  I   I338      1.0  0.38219  0.00475  0.64278  1.0000
  I   I339      1.0  0.56452  0.15162  0.25468  1.0000
  I   I340      1.0  0.64668  0.35196  0.96854  1.0000
  I   I341      1.0  0.21977  0.82874  0.04292  1.0000
  I   I342      1.0  0.23404  0.13968  0.45237  1.0000
  I   I343      1.0  0.98624  0.86179  0.85463  1.0000
  I   I344      1.0  0.26967  0.51181  0.11290  1.0000
  I   I345      1.0  0.30982  0.90919  0.75648  1.0000
  I   I346      1.0  0.44044  0.12189  0.14829  1.0000
  I   I347      1.0  0.89933  0.68379  0.24967  1.0000
  I   I348      1.0  0.27992  0.64570  0.47614  1.0000
  I   I349      1.0  0.49551  0.91181  0.23898  1.0000
  I   I350      1.0  0.27386  0.43828  0.21905  1.0000
  I   I351      1.0  0.10858  0.96920  0.73193  1.0000
  I   I352      1.0  0.88515  0.63212  0.74868  1.0000
  I   I353      1.0  0.98876  0.59028  0.86866  1.0000
  I   I354      1.0  0.40755  0.44129  0.32865  1.0000
  I   I355      1.0  0.86284  0.90461  0.55386  1.0000
  I   I356      1.0  0.18875  0.06974  0.60513  1.0000
  I   I357      1.0  0.82962  0.21831  0.10845  1.0000
  I   I358      1.0  0.22332  0.75386  0.72593  1.0000
  I   I359      1.0  0.70977  0.90755  0.02959  1.0000
  I   I360      1.0  0.84295  0.03622  0.19500  1.0000
  I   I361      1.0  0.13863  0.66742  0.84592  1.0000
  I   I362      1.0  0.20005  0.37924  0.64262  1.0000
  I   I363      1.0  0.07621  0.08359  0.37000  1.0000
  I   I364      1.0  0.89957  0.37878  0.15948  1.0000
  I   I365      1.0  0.49072  0.54266  0.38204  1.0000
  I   I366      1.0  0.02483  0.96434  0.06230  1.0000
  I   I367      1.0  0.29888  0.96211  0.51152  1.0000
  I   I368      1.0  0.77962  0.39122  0.71853  1.0000
  I   I369      1.0  0.71354  0.08812  0.18385  1.0000
  I   I370      1.0  0.65109  0.64782  0.83673  1.0000
  I   I371      1.0  0.88628  0.51829  0.81617  1.0000
  I   I372      1.0  0.00266  0.51738  0.33231  1.0000
  I   I373      1.0  0.09438  0.23955  0.34714  1.0000
  I   I374      1.0  0.36589  0.36354  0.56547  1.0000
  I   I375      1.0  0.47347  0.35426  0.22732  1.0000
  I   I376      1.0  0.70142  0.69545  0.39261  1.0000
  I   I377      1.0  0.49690  0.72083  0.53868  1.0000
  I   I378      1.0  0.75908  0.07069  0.79556  1.0000
  I   I379      1.0  0.38717  0.78264  0.86667  1.0000
  I   I380      1.0  0.82620  0.18159  0.55620  1.0000
  I   I381      1.0  0.81044  0.63431  0.08907  1.0000
  I   I382      1.0  0.42357  0.55358  0.61121  1.0000
  I   I383      1.0  0.10796  0.25488  0.99593  1.0000
  I   I384      1.0  0.01480  0.20554  0.82429  1.0000
