data_image0
_chemical_formula_structural       Ti96I384
_chemical_formula_sum              "Ti96 I384"
_cell_length_a       44.4221
_cell_length_b       44.1842
_cell_length_c       22.6246
_cell_angle_alpha    88.7757
_cell_angle_beta     88.7757
_cell_angle_gamma    62.1586

_space_group_name_H-M_alt    "P 1"
_space_group_IT_number       1

loop_
  _space_group_symop_operation_xyz
  'x, y, z'

loop_
  _atom_site_type_symbol
  _atom_site_label
  _atom_site_symmetry_multiplicity
  _atom_site_fract_x
  _atom_site_fract_y
  _atom_site_fract_z
  _atom_site_occupancy
  Ti  Ti1       1.0  0.32320  0.08402  0.83680  1.0000
  Ti  Ti2       1.0  0.24020  0.02071  0.24530  1.0000
  Ti  Ti3       1.0  0.33776  0.05351  0.46991  1.0000
  Ti  Ti4       1.0  0.20202  0.31614  0.20426  1.0000
  Ti  Ti5       1.0  0.16714  0.31678  0.55218  1.0000
  Ti  Ti6       1.0  0.18316  0.33680  0.88842  1.0000
  Ti  Ti7       1.0  0.11880  0.57366  0.46960  1.0000
  Ti  Ti8       1.0  0.95311  0.71977  0.91882  1.0000
  Ti  Ti9       1.0  0.02659  0.65963  0.19022  1.0000
  Ti  Ti10      1.0  0.04821  0.89697  0.28531  1.0000
  Ti  Ti11      1.0  0.11988  0.80629  0.62474  1.0000
  Ti  Ti12      1.0  0.09939  0.88918  0.95028  1.0000
  Ti  Ti13      1.0  0.50581  0.10608  0.25583  1.0000
  Ti  Ti14      1.0  0.51057  0.10221  0.59100  1.0000
  Ti  Ti15      1.0  0.51132  0.09857  0.93681  1.0000
  Ti  Ti16      1.0  0.33317  0.37475  0.63751  1.0000
  Ti  Ti17      1.0  0.28262  0.49847  0.92858  1.0000
  Ti  Ti18      1.0  0.33478  0.38022  0.29566  1.0000
  Ti  Ti19      1.0  0.36372  0.82622  0.42632  1.0000
  Ti  Ti20      1.0  0.37825  0.66264  0.83315  1.0000
  Ti  Ti21      1.0  0.28059  0.69609  0.37915  1.0000
  Ti  Ti22      1.0  0.22429  0.94063  0.76571  1.0000
  Ti  Ti23      1.0  0.43170  0.87421  0.10782  1.0000
  Ti  Ti24      1.0  0.42065  0.87990  0.70027  1.0000
  Ti  Ti25      1.0  0.63630  0.18983  0.50078  1.0000
  Ti  Ti26      1.0  0.66112  0.17188  0.81832  1.0000
  Ti  Ti27      1.0  0.67359  0.16753  0.16198  1.0000
  Ti  Ti28      1.0  0.61902  0.42142  0.14126  1.0000
  Ti  Ti29      1.0  0.61707  0.38202  0.46044  1.0000
  Ti  Ti30      1.0  0.62112  0.38739  0.79018  1.0000
  Ti  Ti31      1.0  0.62603  0.58526  0.20379  1.0000
  Ti  Ti32      1.0  0.69660  0.54399  0.54490  1.0000
  Ti  Ti33      1.0  0.68718  0.53849  0.90210  1.0000
  Ti  Ti34      1.0  0.70290  0.74587  0.25317  1.0000
  Ti  Ti35      1.0  0.72178  0.72322  0.58539  1.0000
  Ti  Ti36      1.0  0.70266  0.71955  0.91356  1.0000
  Ti  Ti37      1.0  0.86573  0.11698  0.18866  1.0000
  Ti  Ti38      1.0  0.85238  0.13716  0.51518  1.0000
  Ti  Ti39      1.0  0.87391  0.12543  0.86738  1.0000
  Ti  Ti40      1.0  0.97168  0.29582  0.05384  1.0000
  Ti  Ti41      1.0  0.02612  0.24069  0.34514  1.0000
  Ti  Ti42      1.0  0.06325  0.13850  0.62953  1.0000
  Ti  Ti43      1.0  0.96865  0.47482  0.27017  1.0000
  Ti  Ti44      1.0  0.97492  0.48171  0.61601  1.0000
  Ti  Ti45      1.0  0.95570  0.53134  0.92884  1.0000
  Ti  Ti46      1.0  0.76446  0.94299  0.22691  1.0000
  Ti  Ti47      1.0  0.77034  0.91906  0.54845  1.0000
  Ti  Ti48      1.0  0.76378  0.94114  0.88946  1.0000
  Ti  Ti49      1.0  0.31445  0.09745  0.65274  1.0000
  Ti  Ti50      1.0  0.18701  0.03262  0.10753  1.0000
  Ti  Ti51      1.0  0.23697  0.06213  0.42634  1.0000
  Ti  Ti52      1.0  0.13614  0.38399  0.04851  1.0000
  Ti  Ti53      1.0  0.14437  0.36316  0.37475  1.0000
  Ti  Ti54      1.0  0.12904  0.38111  0.71395  1.0000
  Ti  Ti55      1.0  0.04147  0.65800  0.37103  1.0000
  Ti  Ti56      1.0  0.93150  0.75453  0.74810  1.0000
  Ti  Ti57      1.0  0.92953  0.74008  0.09925  1.0000
  Ti  Ti58      1.0  0.01367  0.90709  0.10122  1.0000
  Ti  Ti59      1.0  0.94932  0.92042  0.36876  1.0000
  Ti  Ti60      1.0  0.04454  0.86553  0.79519  1.0000
  Ti  Ti61      1.0  0.43954  0.16473  0.08330  1.0000
  Ti  Ti62      1.0  0.44903  0.15729  0.43171  1.0000
  Ti  Ti63      1.0  0.45781  0.14139  0.76206  1.0000
  Ti  Ti64      1.0  0.30222  0.40342  0.46734  1.0000
  Ti  Ti65      1.0  0.27138  0.46466  0.74385  1.0000
  Ti  Ti66      1.0  0.22233  0.51817  0.06946  1.0000
  Ti  Ti67      1.0  0.31626  0.78232  0.37823  1.0000
  Ti  Ti68      1.0  0.30281  0.65376  0.79459  1.0000
  Ti  Ti69      1.0  0.25745  0.63815  0.30436  1.0000
  Ti  Ti70      1.0  0.31609  0.91971  0.71918  1.0000
  Ti  Ti71      1.0  0.42490  0.80939  0.01404  1.0000
  Ti  Ti72      1.0  0.45057  0.92340  0.22001  1.0000
  Ti  Ti73      1.0  0.60228  0.22993  0.31771  1.0000
  Ti  Ti74      1.0  0.58827  0.23647  0.66413  1.0000
  Ti  Ti75      1.0  0.61397  0.21576  0.99797  1.0000
  Ti  Ti76      1.0  0.56832  0.43722  0.96374  1.0000
  Ti  Ti77      1.0  0.53248  0.49287  0.28231  1.0000
  Ti  Ti78      1.0  0.56198  0.43515  0.61707  1.0000
  Ti  Ti79      1.0  0.58882  0.61116  0.00905  1.0000
  Ti  Ti80      1.0  0.54517  0.66561  0.32062  1.0000
  Ti  Ti81      1.0  0.66399  0.54041  0.70899  1.0000
  Ti  Ti82      1.0  0.64709  0.75657  0.08933  1.0000
  Ti  Ti83      1.0  0.65420  0.76986  0.42968  1.0000
  Ti  Ti84      1.0  0.64166  0.76385  0.74862  1.0000
  Ti  Ti85      1.0  0.86841  0.17334  0.04058  1.0000
  Ti  Ti86      1.0  0.84356  0.18898  0.35138  1.0000
  Ti  Ti87      1.0  0.86953  0.18060  0.67933  1.0000
  Ti  Ti88      1.0  0.97376  0.33642  0.89263  1.0000
  Ti  Ti89      1.0  0.93308  0.32355  0.23811  1.0000
  Ti  Ti90      1.0  0.01587  0.24130  0.54984  1.0000
  Ti  Ti91      1.0  0.88299  0.59493  0.07512  1.0000
  Ti  Ti92      1.0  0.89929  0.53899  0.43094  1.0000
  Ti  Ti93      1.0  0.90755  0.55851  0.75112  1.0000
  Ti  Ti94      1.0  0.70851  0.96399  0.05338  1.0000
  Ti  Ti95      1.0  0.71012  0.98421  0.38682  1.0000
  Ti  Ti96      1.0  0.71221  0.96931  0.72003  1.0000
  I   I1        1.0  0.17609  0.98949  0.04299  1.0000
  I   I2        1.0  0.20676  0.02637  0.35325  1.0000
  I   I3        1.0  0.30058  0.04711  0.59450  1.0000
  I   I4        1.0  0.13836  0.32861  0.27775  1.0000
  I   I5        1.0  0.10249  0.35790  0.60536  1.0000
  I   I6        1.0  0.12163  0.35487  0.94701  1.0000
  I   I7        1.0  0.95774  0.70442  0.67883  1.0000
  I   I8        1.0  0.89721  0.73166  0.99977  1.0000
  I   I9        1.0  0.99515  0.65421  0.30717  1.0000
  I   I10       1.0  0.99945  0.86830  0.30775  1.0000
  I   I11       1.0  0.06574  0.80643  0.71646  1.0000
  I   I12       1.0  0.06156  0.86506  0.02403  1.0000
  I   I13       1.0  0.44105  0.12975  0.31689  1.0000
  I   I14       1.0  0.44522  0.11956  0.64804  1.0000
  I   I15       1.0  0.44334  0.12287  0.98776  1.0000
  I   I16       1.0  0.26605  0.41516  0.67351  1.0000
  I   I17       1.0  0.20782  0.52974  0.94509  1.0000
  I   I18       1.0  0.28678  0.37259  0.37634  1.0000
  I   I19       1.0  0.36841  0.59500  0.78767  1.0000
  I   I20       1.0  0.20210  0.66200  0.24332  1.0000
  I   I21       1.0  0.26716  0.76811  0.42790  1.0000
  I   I22       1.0  0.40386  0.77655  0.08395  1.0000
  I   I23       1.0  0.37589  0.86628  0.08883  1.0000
  I   I24       1.0  0.36622  0.85763  0.73122  1.0000
  I   I25       1.0  0.56987  0.22865  0.55295  1.0000
  I   I26       1.0  0.60414  0.17920  0.90788  1.0000
  I   I27       1.0  0.59138  0.19570  0.23299  1.0000
  I   I28       1.0  0.55105  0.44467  0.19534  1.0000
  I   I29       1.0  0.54409  0.41436  0.51941  1.0000
  I   I30       1.0  0.56111  0.39675  0.86579  1.0000
  I   I31       1.0  0.54842  0.62707  0.22343  1.0000
  I   I32       1.0  0.68661  0.48357  0.64794  1.0000
  I   I33       1.0  0.61764  0.55033  0.92233  1.0000
  I   I34       1.0  0.64148  0.74135  0.33142  1.0000
  I   I35       1.0  0.65796  0.72284  0.64300  1.0000
  I   I36       1.0  0.65503  0.70924  0.00137  1.0000
  I   I37       1.0  0.81962  0.18288  0.23728  1.0000
  I   I38       1.0  0.83166  0.20455  0.57285  1.0000
  I   I39       1.0  0.83612  0.18935  0.93692  1.0000
  I   I40       1.0  0.91925  0.30383  0.11485  1.0000
  I   I41       1.0  0.97761  0.26326  0.44495  1.0000
  I   I42       1.0  0.00244  0.29327  0.81171  1.0000
  I   I43       1.0  0.91164  0.48726  0.35010  1.0000
  I   I44       1.0  0.90305  0.52084  0.65915  1.0000
  I   I45       1.0  0.89758  0.53949  0.00874  1.0000
  I   I46       1.0  0.70452  0.94388  0.28063  1.0000
  I   I47       1.0  0.70698  0.93786  0.60815  1.0000
  I   I48       1.0  0.71786  0.92394  0.96691  1.0000
  I   I49       1.0  0.31897  0.14355  0.72785  1.0000
  I   I50       1.0  0.18734  0.08031  0.19361  1.0000
  I   I51       1.0  0.27226  0.10293  0.44386  1.0000
  I   I52       1.0  0.16062  0.38746  0.15138  1.0000
  I   I53       1.0  0.16705  0.38173  0.46787  1.0000
  I   I54       1.0  0.15604  0.39526  0.81586  1.0000
  I   I55       1.0  0.09978  0.64425  0.43604  1.0000
  I   I56       1.0  0.91359  0.78256  0.87855  1.0000
  I   I57       1.0  0.97631  0.73316  0.19383  1.0000
  I   I58       1.0  0.98881  0.94457  0.21749  1.0000
  I   I59       1.0  0.94984  0.89404  0.47066  1.0000
  I   I60       1.0  0.03959  0.91715  0.86276  1.0000
  I   I61       1.0  0.46734  0.17533  0.18597  1.0000
  I   I62       1.0  0.48045  0.16619  0.52759  1.0000
  I   I63       1.0  0.48169  0.15950  0.86144  1.0000
  I   I64       1.0  0.32595  0.43477  0.53689  1.0000
  I   I65       1.0  0.27194  0.51899  0.81474  1.0000
  I   I66       1.0  0.26176  0.51755  0.16178  1.0000
  I   I67       1.0  0.35475  0.80601  0.31234  1.0000
  I   I68       1.0  0.32672  0.65063  0.91415  1.0000
  I   I69       1.0  0.26799  0.70431  0.26354  1.0000
  I   I70       1.0  0.25262  0.98304  0.73212  1.0000
  I   I71       1.0  0.45104  0.85835  0.99153  1.0000
  I   I72       1.0  0.47969  0.88719  0.31990  1.0000
  I   I73       1.0  0.62552  0.25177  0.41910  1.0000
  I   I74       1.0  0.60643  0.24152  0.78430  1.0000
  I   I75       1.0  0.63392  0.23686  0.11490  1.0000
  I   I76       1.0  0.57919  0.47009  0.04943  1.0000
  I   I77       1.0  0.56412  0.48306  0.38301  1.0000
  I   I78       1.0  0.57846  0.45699  0.72796  1.0000
  I   I79       1.0  0.60915  0.63420  0.11516  1.0000
  I   I80       1.0  0.54586  0.69734  0.41212  1.0000
  I   I81       1.0  0.66362  0.58810  0.79111  1.0000
  I   I82       1.0  0.65596  0.79129  0.18931  1.0000
  I   I83       1.0  0.68089  0.78853  0.52427  1.0000
  I   I84       1.0  0.65184  0.78326  0.85356  1.0000
  I   I85       1.0  0.91239  0.14625  0.14414  1.0000
  I   I86       1.0  0.88829  0.16823  0.44527  1.0000
  I   I87       1.0  0.90951  0.15734  0.80169  1.0000
  I   I88       1.0  0.94096  0.36670  0.01346  1.0000
  I   I89       1.0  0.97361  0.32332  0.32068  1.0000
  I   I90       1.0  0.06640  0.20340  0.62824  1.0000
  I   I91       1.0  0.89960  0.62590  0.15593  1.0000
  I   I92       1.0  0.93246  0.55804  0.50652  1.0000
  I   I93       1.0  0.92354  0.58892  0.84653  1.0000
  I   I94       1.0  0.71634  0.99441  0.16506  1.0000
  I   I95       1.0  0.73791  0.98975  0.48997  1.0000
  I   I96       1.0  0.70451  0.99511  0.83544  1.0000
  I   I97       1.0  0.35715  0.08545  0.55759  1.0000
  I   I98       1.0  0.28667  0.13649  0.90388  1.0000
  I   I99       1.0  0.24559  0.07514  0.30130  1.0000
  I   I100      1.0  0.20413  0.35734  0.99349  1.0000
  I   I101      1.0  0.21691  0.31337  0.31269  1.0000
  I   I102      1.0  0.19040  0.34861  0.64276  1.0000
  I   I103      1.0  0.07460  0.65946  0.26419  1.0000
  I   I104      1.0  0.13902  0.58103  0.57236  1.0000
  I   I105      1.0  0.97091  0.74774  0.01024  1.0000
  I   I106      1.0  0.05499  0.94111  0.04013  1.0000
  I   I107      1.0  0.00948  0.93503  0.38649  1.0000
  I   I108      1.0  0.08853  0.87054  0.69982  1.0000
  I   I109      1.0  0.50306  0.14912  0.01899  1.0000
  I   I110      1.0  0.51978  0.13211  0.35773  1.0000
  I   I111      1.0  0.51693  0.12179  0.70236  1.0000
  I   I112      1.0  0.37212  0.36414  0.42058  1.0000
  I   I113      1.0  0.33833  0.42174  0.70903  1.0000
  I   I114      1.0  0.28017  0.54197  0.02112  1.0000
  I   I115      1.0  0.32931  0.72083  0.32922  1.0000
  I   I116      1.0  0.35849  0.82630  0.54357  1.0000
  I   I117      1.0  0.36967  0.71569  0.88366  1.0000
  I   I118      1.0  0.36955  0.93821  0.75580  1.0000
  I   I119      1.0  0.17016  0.97149  0.70361  1.0000
  I   I120      1.0  0.40728  0.94073  0.09733  1.0000
  I   I121      1.0  0.66799  0.21182  0.26026  1.0000
  I   I122      1.0  0.65243  0.22433  0.60624  1.0000
  I   I123      1.0  0.67021  0.20199  0.91727  1.0000
  I   I124      1.0  0.62432  0.42666  0.87896  1.0000
  I   I125      1.0  0.60299  0.46907  0.23520  1.0000
  I   I126      1.0  0.61738  0.42430  0.54758  1.0000
  I   I127      1.0  0.66262  0.59087  0.98020  1.0000
  I   I128      1.0  0.61389  0.63399  0.30360  1.0000
  I   I129      1.0  0.72531  0.53848  0.66161  1.0000
  I   I130      1.0  0.70263  0.75793  0.01390  1.0000
  I   I131      1.0  0.69921  0.77863  0.35438  1.0000
  I   I132      1.0  0.71362  0.75333  0.70237  1.0000
  I   I133      1.0  0.90837  0.11444  0.97072  1.0000
  I   I134      1.0  0.89881  0.11938  0.29234  1.0000
  I   I135      1.0  0.89027  0.11273  0.63610  1.0000
  I   I136      1.0  0.03683  0.09602  0.63091  1.0000
  I   I137      1.0  0.98798  0.32002  0.15508  1.0000
  I   I138      1.0  0.06361  0.22387  0.44154  1.0000
  I   I139      1.0  0.95205  0.57607  0.03155  1.0000
  I   I140      1.0  0.97631  0.51031  0.37574  1.0000
  I   I141      1.0  0.98458  0.52705  0.67718  1.0000
  I   I142      1.0  0.75494  0.98371  0.99309  1.0000
  I   I143      1.0  0.77958  0.95720  0.34197  1.0000
  I   I144      1.0  0.78016  0.94361  0.65965  1.0000
  I   I145      1.0  0.35819  0.04435  0.73081  1.0000
  I   I146      1.0  0.21303  0.98154  0.21523  1.0000
  I   I147      1.0  0.31264  0.01494  0.41978  1.0000
  I   I148      1.0  0.15726  0.31288  0.10377  1.0000
  I   I149      1.0  0.13308  0.31467  0.46052  1.0000
  I   I150      1.0  0.15974  0.31189  0.79458  1.0000
  I   I151      1.0  0.08228  0.58610  0.36380  1.0000
  I   I152      1.0  0.92061  0.70668  0.82506  1.0000
  I   I153      1.0  0.96838  0.67056  0.10957  1.0000
  I   I154      1.0  0.06994  0.86386  0.18272  1.0000
  I   I155      1.0  0.10029  0.85366  0.54134  1.0000
  I   I156      1.0  0.12371  0.83409  0.88694  1.0000
  I   I157      1.0  0.47702  0.09829  0.15712  1.0000
  I   I158      1.0  0.49254  0.08937  0.47587  1.0000
  I   I159      1.0  0.48364  0.08160  0.83664  1.0000
  I   I160      1.0  0.32318  0.34829  0.53312  1.0000
  I   I161      1.0  0.29157  0.43268  0.86460  1.0000
  I   I162      1.0  0.28884  0.40214  0.20780  1.0000
  I   I163      1.0  0.37341  0.76116  0.45891  1.0000
  I   I164      1.0  0.30678  0.71016  0.78278  1.0000
  I   I165      1.0  0.21785  0.70097  0.39826  1.0000
  I   I166      1.0  0.29581  0.91265  0.83053  1.0000
  I   I167      1.0  0.47247  0.79190  0.11911  1.0000
  I   I168      1.0  0.42827  0.86255  0.59338  1.0000
  I   I169      1.0  0.61878  0.17002  0.39088  1.0000
  I   I170      1.0  0.63098  0.16547  0.71118  1.0000
  I   I171      1.0  0.67003  0.14740  0.05519  1.0000
  I   I172      1.0  0.61095  0.38362  0.04763  1.0000
  I   I173      1.0  0.58073  0.36740  0.38561  1.0000
  I   I174      1.0  0.60056  0.36993  0.68620  1.0000
  I   I175      1.0  0.61361  0.55605  0.10960  1.0000
  I   I176      1.0  0.65500  0.52858  0.48218  1.0000
  I   I177      1.0  0.69302  0.49557  0.80726  1.0000
  I   I178      1.0  0.70464  0.69901  0.15610  1.0000
  I   I179      1.0  0.70721  0.70122  0.48297  1.0000
  I   I180      1.0  0.68638  0.69497  0.82328  1.0000
  I   I181      1.0  0.83791  0.13068  0.08155  1.0000
  I   I182      1.0  0.82220  0.14619  0.40271  1.0000
  I   I183      1.0  0.83007  0.16115  0.75917  1.0000
  I   I184      1.0  0.94900  0.28684  0.95139  1.0000
  I   I185      1.0  0.96640  0.24751  0.27094  1.0000
  I   I186      1.0  0.02048  0.17755  0.53563  1.0000
  I   I187      1.0  0.93227  0.49038  0.17867  1.0000
  I   I188      1.0  0.93173  0.48264  0.52297  1.0000
  I   I189      1.0  0.94872  0.49570  0.82743  1.0000
  I   I190      1.0  0.76940  0.91140  0.10158  1.0000
  I   I191      1.0  0.74162  0.91159  0.45255  1.0000
  I   I192      1.0  0.75075  0.90547  0.79801  1.0000
  I   I193      1.0  0.37880  0.07531  0.88324  1.0000
  I   I194      1.0  0.25481  0.01319  0.11647  1.0000
  I   I195      1.0  0.36111  0.07126  0.37891  1.0000
  I   I196      1.0  0.24822  0.31453  0.13427  1.0000
  I   I197      1.0  0.22830  0.28585  0.51119  1.0000
  I   I198      1.0  0.23623  0.33474  0.83545  1.0000
  I   I199      1.0  0.17594  0.53742  0.41881  1.0000
  I   I200      1.0  0.99977  0.71593  0.82184  1.0000
  I   I201      1.0  0.05890  0.66868  0.10091  1.0000
  I   I202      1.0  0.07383  0.94077  0.28176  1.0000
  I   I203      1.0  0.17689  0.78613  0.68098  1.0000
  I   I204      1.0  0.10448  0.93888  0.89267  1.0000
  I   I205      1.0  0.55953  0.09586  0.19005  1.0000
  I   I206      1.0  0.57269  0.08962  0.56380  1.0000
  I   I207      1.0  0.57060  0.09124  0.89053  1.0000
  I   I208      1.0  0.39578  0.34861  0.60020  1.0000
  I   I209      1.0  0.35111  0.46949  0.94318  1.0000
  I   I210      1.0  0.38204  0.38676  0.23906  1.0000
  I   I211      1.0  0.35096  0.89040  0.38416  1.0000
  I   I212      1.0  0.41682  0.65996  0.74698  1.0000
  I   I213      1.0  0.31319  0.62396  0.36096  1.0000
  I   I214      1.0  0.19900  0.97258  0.86003  1.0000
  I   I215      1.0  0.49380  0.87386  0.13150  1.0000
  I   I216      1.0  0.45977  0.91007  0.69551  1.0000
  I   I217      1.0  0.70171  0.16870  0.47834  1.0000
  I   I218      1.0  0.70929  0.17944  0.75706  1.0000
  I   I219      1.0  0.73168  0.16642  0.14002  1.0000
  I   I220      1.0  0.67824  0.41763  0.11914  1.0000
  I   I221      1.0  0.66872  0.37270  0.38878  1.0000
  I   I222      1.0  0.67473  0.38566  0.74129  1.0000
  I   I223      1.0  0.69319  0.55557  0.19851  1.0000
  I   I224      1.0  0.68806  0.60293  0.49675  1.0000
  I   I225      1.0  0.74614  0.53443  0.87972  1.0000
  I   I226      1.0  0.75119  0.75740  0.21427  1.0000
  I   I227      1.0  0.77950  0.72583  0.58640  1.0000
  I   I228      1.0  0.74945  0.73292  0.86563  1.0000
  I   I229      1.0  0.91260  0.06229  0.13622  1.0000
  I   I230      1.0  0.89339  0.07945  0.47091  1.0000
  I   I231      1.0  0.91772  0.06933  0.81484  1.0000
  I   I232      1.0  0.02442  0.30334  0.97320  1.0000
  I   I233      1.0  0.07157  0.24651  0.28264  1.0000
  I   I234      1.0  0.08297  0.12560  0.73927  1.0000
  I   I235      1.0  0.01881  0.47965  0.22251  1.0000
  I   I236      1.0  0.02278  0.46527  0.53314  1.0000
  I   I237      1.0  0.01411  0.52903  0.91849  1.0000
  I   I238      1.0  0.80937  0.95874  0.18060  1.0000
  I   I239      1.0  0.82887  0.91135  0.50770  1.0000
  I   I240      1.0  0.79651  0.97295  0.83622  1.0000
  I   I241      1.0  0.32102  0.03469  0.89383  1.0000
  I   I242      1.0  0.29833  0.97653  0.28395  1.0000
  I   I243      1.0  0.39755  0.99970  0.50709  1.0000
  I   I244      1.0  0.21975  0.24919  0.20005  1.0000
  I   I245      1.0  0.16412  0.27135  0.63408  1.0000
  I   I246      1.0  0.22688  0.26854  0.91897  1.0000
  I   I247      1.0  0.10450  0.52585  0.51525  1.0000
  I   I248      1.0  0.99135  0.65752  0.93243  1.0000
  I   I249      1.0  0.06255  0.59490  0.17817  1.0000
  I   I250      1.0  0.09728  0.85871  0.35538  1.0000
  I   I251      1.0  0.12409  0.75158  0.58141  1.0000
  I   I252      1.0  0.14590  0.87143  0.03314  1.0000
  I   I253      1.0  0.52848  0.04197  0.28492  1.0000
  I   I254      1.0  0.52092  0.03886  0.60358  1.0000
  I   I255      1.0  0.52885  0.03793  0.97883  1.0000
  I   I256      1.0  0.34012  0.32118  0.70762  1.0000
  I   I257      1.0  0.28014  0.45916  0.03309  1.0000
  I   I258      1.0  0.36420  0.31737  0.28003  1.0000
  I   I259      1.0  0.43090  0.79078  0.41418  1.0000
  I   I260      1.0  0.42672  0.61678  0.89611  1.0000
  I   I261      1.0  0.30072  0.67857  0.49247  1.0000
  I   I262      1.0  0.21368  0.88890  0.79288  1.0000
  I   I263      1.0  0.41443  0.87918  0.23012  1.0000
  I   I264      1.0  0.46239  0.82105  0.75449  1.0000
  I   I265      1.0  0.63870  0.13439  0.53394  1.0000
  I   I266      1.0  0.69837  0.10772  0.84191  1.0000
  I   I267      1.0  0.69224  0.12021  0.24471  1.0000
  I   I268      1.0  0.64931  0.36742  0.20930  1.0000
  I   I269      1.0  0.63904  0.32909  0.53079  1.0000
  I   I270      1.0  0.64993  0.32558  0.84727  1.0000
  I   I271      1.0  0.62305  0.54533  0.29272  1.0000
  I   I272      1.0  0.75156  0.50604  0.49031  1.0000
  I   I273      1.0  0.71065  0.48806  0.98501  1.0000
  I   I274      1.0  0.74186  0.68258  0.30010  1.0000
  I   I275      1.0  0.75469  0.65840  0.62776  1.0000
  I   I276      1.0  0.74577  0.66292  0.96798  1.0000
  I   I277      1.0  0.83289  0.08923  0.24797  1.0000
  I   I278      1.0  0.80238  0.13311  0.56467  1.0000
  I   I279      1.0  0.82676  0.10807  0.89964  1.0000
  I   I280      1.0  0.01349  0.23045  0.08359  1.0000
  I   I281      1.0  0.04445  0.17556  0.33565  1.0000
  I   I282      1.0  0.11329  0.11079  0.55753  1.0000
  I   I283      1.0  0.99821  0.40736  0.26855  1.0000
  I   I284      1.0  0.99817  0.42136  0.66848  1.0000
  I   I285      1.0  0.99229  0.46595  0.96995  1.0000
  I   I286      1.0  0.80956  0.87809  0.25571  1.0000
  I   I287      1.0  0.79485  0.85426  0.57136  1.0000
  I   I288      1.0  0.81425  0.88992  0.93641  1.0000
  I   I289      1.0  0.27474  0.09530  0.75696  1.0000
  I   I290      1.0  0.12205  0.05399  0.14816  1.0000
  I   I291      1.0  0.22745  0.03184  0.51814  1.0000
  I   I292      1.0  0.06952  0.41097  0.07363  1.0000
  I   I293      1.0  0.07912  0.40497  0.38766  1.0000
  I   I294      1.0  0.07361  0.38888  0.77100  1.0000
  I   I295      1.0  0.00943  0.64721  0.46426  1.0000
  I   I296      1.0  0.87326  0.77934  0.70285  1.0000
  I   I297      1.0  0.88927  0.73037  0.17499  1.0000
  I   I298      1.0  0.99026  0.86543  0.11713  1.0000
  I   I299      1.0  0.90452  0.90546  0.32665  1.0000
  I   I300      1.0  0.02997  0.83064  0.87410  1.0000
  I   I301      1.0  0.38282  0.18051  0.14295  1.0000
  I   I302      1.0  0.39284  0.15527  0.46887  1.0000
  I   I303      1.0  0.40263  0.15848  0.82846  1.0000
  I   I304      1.0  0.23637  0.43750  0.48686  1.0000
  I   I305      1.0  0.20827  0.48552  0.77769  1.0000
  I   I306      1.0  0.18778  0.48761  0.10969  1.0000
  I   I307      1.0  0.29281  0.84729  0.44127  1.0000
  I   I308      1.0  0.24274  0.66158  0.83122  1.0000
  I   I309      1.0  0.29038  0.59388  0.21999  1.0000
  I   I310      1.0  0.27155  0.89265  0.68145  1.0000
  I   I311      1.0  0.37869  0.82002  0.93694  1.0000
  I   I312      1.0  0.40701  0.97966  0.25943  1.0000
  I   I313      1.0  0.54382  0.24576  0.37736  1.0000
  I   I314      1.0  0.53237  0.23850  0.70655  1.0000
  I   I315      1.0  0.57112  0.20873  0.06749  1.0000
  I   I316      1.0  0.51737  0.43259  0.01375  1.0000
  I   I317      1.0  0.48101  0.49371  0.34035  1.0000
  I   I318      1.0  0.50226  0.45119  0.67680  1.0000
  I   I319      1.0  0.53392  0.60638  0.00937  1.0000
  I   I320      1.0  0.48518  0.66668  0.35089  1.0000
  I   I321      1.0  0.60279  0.54970  0.73507  1.0000
  I   I322      1.0  0.60855  0.74151  0.15548  1.0000
  I   I323      1.0  0.60963  0.75132  0.48344  1.0000
  I   I324      1.0  0.57846  0.77874  0.76746  1.0000
  I   I325      1.0  0.82478  0.23028  0.09471  1.0000
  I   I326      1.0  0.79363  0.24483  0.38636  1.0000
  I   I327      1.0  0.83564  0.24601  0.71000  1.0000
  I   I328      1.0  0.91348  0.36525  0.85169  1.0000
  I   I329      1.0  0.88076  0.31519  0.28129  1.0000
  I   I330      1.0  0.98181  0.25206  0.64873  1.0000
  I   I331      1.0  0.83205  0.60248  0.14442  1.0000
  I   I332      1.0  0.84395  0.55742  0.49090  1.0000
  I   I333      1.0  0.84949  0.56363  0.79071  1.0000
  I   I334      1.0  0.66520  0.95017  0.10670  1.0000
  I   I335      1.0  0.64693  0.00950  0.41736  1.0000
  I   I336      1.0  0.65457  0.97173  0.74827  1.0000
  I   I337      1.0  0.26113  0.14966  0.60721  1.0000
  I   I338      1.0  0.17366  0.08336  0.03265  1.0000
  I   I339      1.0  0.18187  0.12262  0.43968  1.0000
  I   I340      1.0  0.13329  0.43634  0.99348  1.0000
  I   I341      1.0  0.14851  0.41663  0.31671  1.0000
  I   I342      1.0  0.11554  0.43547  0.65251  1.0000
  I   I343      1.0  0.01869  0.72367  0.39507  1.0000
  I   I344      1.0  0.94319  0.80772  0.71595  1.0000
  I   I345      1.0  0.90681  0.80482  0.12958  1.0000
  I   I346      1.0  0.96298  0.95480  0.04383  1.0000
  I   I347      1.0  0.90872  0.98309  0.40170  1.0000
  I   I348      1.0  0.98089  0.90310  0.75810  1.0000
  I   I349      1.0  0.40408  0.21611  0.00647  1.0000
  I   I350      1.0  0.43637  0.21653  0.38684  1.0000
  I   I351      1.0  0.43930  0.20284  0.70995  1.0000
  I   I352      1.0  0.29123  0.44760  0.36013  1.0000
  I   I353      1.0  0.25788  0.51224  0.65736  1.0000
  I   I354      1.0  0.17341  0.57885  0.08868  1.0000
  I   I355      1.0  0.26731  0.82509  0.30672  1.0000
  I   I356      1.0  0.28166  0.66234  0.68507  1.0000
  I   I357      1.0  0.24195  0.60367  0.38319  1.0000
  I   I358      1.0  0.33044  0.93281  0.61138  1.0000
  I   I359      1.0  0.47475  0.76045  0.95924  1.0000
  I   I360      1.0  0.49408  0.94815  0.21984  1.0000
  I   I361      1.0  0.58152  0.28576  0.25139  1.0000
  I   I362      1.0  0.56948  0.29978  0.64689  1.0000
  I   I363      1.0  0.57218  0.27192  0.94294  1.0000
  I   I364      1.0  0.53807  0.49297  0.90023  1.0000
  I   I365      1.0  0.50379  0.55471  0.25191  1.0000
  I   I366      1.0  0.53840  0.49868  0.57942  1.0000
  I   I367      1.0  0.56787  0.66502  0.94380  1.0000
  I   I368      1.0  0.52021  0.72370  0.25404  1.0000
  I   I369      1.0  0.64272  0.59244  0.62353  1.0000
  I   I370      1.0  0.59819  0.81100  0.04520  1.0000
  I   I371      1.0  0.60139  0.83278  0.41481  1.0000
  I   I372      1.0  0.62089  0.82418  0.70089  1.0000
  I   I373      1.0  0.90556  0.20331  0.01120  1.0000
  I   I374      1.0  0.88319  0.21419  0.29250  1.0000
  I   I375      1.0  0.92319  0.18150  0.64056  1.0000
  I   I376      1.0  0.99042  0.38398  0.85539  1.0000
  I   I377      1.0  0.89444  0.39053  0.22466  1.0000
  I   I378      1.0  0.01796  0.30118  0.57081  1.0000
  I   I379      1.0  0.84665  0.64387  0.99669  1.0000
  I   I380      1.0  0.87967  0.58788  0.34658  1.0000
  I   I381      1.0  0.89106  0.61497  0.69122  1.0000
  I   I382      1.0  0.65941  0.02675  0.01815  1.0000
  I   I383      1.0  0.70655  0.03808  0.32679  1.0000
  I   I384      1.0  0.69106  0.03051  0.68131  1.0000
