data_image0
_chemical_formula_structural       Ti96I384
_chemical_formula_sum              "Ti96 I384"
_cell_length_a       74.5995
_cell_length_b       74.4797
_cell_length_c       36.4955
_cell_angle_alpha    88.7757
_cell_angle_beta     88.7757
_cell_angle_gamma    62.1586

_space_group_name_H-M_alt    "P 1"
_space_group_IT_number       1

loop_
  _space_group_symop_operation_xyz
  'x, y, z'

loop_
  _atom_site_type_symbol
  _atom_site_label
  _atom_site_symmetry_multiplicity
  _atom_site_fract_x
  _atom_site_fract_y
  _atom_site_fract_z
  _atom_site_occupancy
  Ti  Ti1       1.0  0.84987  0.13525  0.88515  1.0000
  Ti  Ti2       1.0  0.47771  0.68844  0.53163  1.0000
  Ti  Ti3       1.0  0.11518  0.01620  0.15377  1.0000
  Ti  Ti4       1.0  0.08183  0.30772  0.04449  1.0000
  Ti  Ti5       1.0  0.20041  0.06110  0.66905  1.0000
  Ti  Ti6       1.0  0.43450  0.36117  0.36763  1.0000
  Ti  Ti7       1.0  0.62160  0.28445  0.82316  1.0000
  Ti  Ti8       1.0  0.34761  0.65429  0.02262  1.0000
  Ti  Ti9       1.0  0.24800  0.34883  0.55001  1.0000
  Ti  Ti10      1.0  0.61044  0.76212  0.26447  1.0000
  Ti  Ti11      1.0  0.30337  0.08870  0.48276  1.0000
  Ti  Ti12      1.0  0.96215  0.10467  0.66242  1.0000
  Ti  Ti13      1.0  0.80841  0.77439  0.46203  1.0000
  Ti  Ti14      1.0  0.03666  0.35195  0.02158  1.0000
  Ti  Ti15      1.0  0.80117  0.57909  0.70876  1.0000
  Ti  Ti16      1.0  0.13312  0.47359  0.37502  1.0000
  Ti  Ti17      1.0  0.06334  0.98609  0.61207  1.0000
  Ti  Ti18      1.0  0.20805  0.24136  0.05665  1.0000
  Ti  Ti19      1.0  0.90664  0.04727  0.88185  1.0000
  Ti  Ti20      1.0  0.18272  0.54359  0.10365  1.0000
  Ti  Ti21      1.0  0.30996  0.67140  0.09105  1.0000
  Ti  Ti22      1.0  0.87560  0.32862  0.61473  1.0000
  Ti  Ti23      1.0  0.98278  0.79919  0.54861  1.0000
  Ti  Ti24      1.0  0.72879  0.28014  0.79074  1.0000
  Ti  Ti25      1.0  0.69822  0.53219  0.41727  1.0000
  Ti  Ti26      1.0  0.79115  0.92025  0.01955  1.0000
  Ti  Ti27      1.0  0.49042  0.45345  0.18706  1.0000
  Ti  Ti28      1.0  0.39492  0.11577  0.70702  1.0000
  Ti  Ti29      1.0  0.32103  0.87045  0.52623  1.0000
  Ti  Ti30      1.0  0.45899  0.82722  0.84602  1.0000
  Ti  Ti31      1.0  0.34343  0.67442  0.36632  1.0000
  Ti  Ti32      1.0  0.56279  0.74310  0.99278  1.0000
  Ti  Ti33      1.0  0.50150  0.49498  0.30529  1.0000
  Ti  Ti34      1.0  0.68746  0.57361  0.85355  1.0000
  Ti  Ti35      1.0  0.82564  0.69057  0.15301  1.0000
  Ti  Ti36      1.0  0.51382  0.26182  0.59115  1.0000
  Ti  Ti37      1.0  0.88162  0.67150  0.67950  1.0000
  Ti  Ti38      1.0  0.28260  0.30848  0.92756  1.0000
  Ti  Ti39      1.0  0.86635  0.56031  0.00510  1.0000
  Ti  Ti40      1.0  0.57709  0.72689  0.31071  1.0000
  Ti  Ti41      1.0  0.90455  0.43837  0.13456  1.0000
  Ti  Ti42      1.0  0.03092  0.48373  0.23666  1.0000
  Ti  Ti43      1.0  0.94173  0.90882  0.88431  1.0000
  Ti  Ti44      1.0  0.95127  0.41405  0.18466  1.0000
  Ti  Ti45      1.0  0.35845  0.19852  0.27726  1.0000
  Ti  Ti46      1.0  0.64368  0.99929  0.09319  1.0000
  Ti  Ti47      1.0  0.13926  0.93920  0.81067  1.0000
  Ti  Ti48      1.0  0.06132  0.06616  0.86714  1.0000
  Ti  Ti49      1.0  0.95951  0.90744  0.79227  1.0000
  Ti  Ti50      1.0  0.10160  0.11656  0.52293  1.0000
  Ti  Ti51      1.0  0.43429  0.67613  0.53573  1.0000
  Ti  Ti52      1.0  0.73515  0.48534  0.72047  1.0000
  Ti  Ti53      1.0  0.16541  0.81015  0.50697  1.0000
  Ti  Ti54      1.0  0.55888  0.93975  0.40326  1.0000
  Ti  Ti55      1.0  0.58028  0.74195  0.08346  1.0000
  Ti  Ti56      1.0  0.51968  0.91582  0.19275  1.0000
  Ti  Ti57      1.0  0.20819  0.38610  0.57642  1.0000
  Ti  Ti58      1.0  0.33663  0.78849  0.84488  1.0000
  Ti  Ti59      1.0  0.44337  0.53998  0.96786  1.0000
  Ti  Ti60      1.0  0.94264  0.10789  0.57214  1.0000
  Ti  Ti61      1.0  0.74810  0.75442  0.00818  1.0000
  Ti  Ti62      1.0  0.84589  0.77530  0.49220  1.0000
  Ti  Ti63      1.0  0.20049  0.50886  0.04967  1.0000
  Ti  Ti64      1.0  0.25210  0.19935  0.08371  1.0000
  Ti  Ti65      1.0  0.20071  0.75671  0.88509  1.0000
  Ti  Ti66      1.0  0.24685  0.41147  0.28521  1.0000
  Ti  Ti67      1.0  0.15964  0.20573  0.35968  1.0000
  Ti  Ti68      1.0  0.51461  0.16312  0.24519  1.0000
  Ti  Ti69      1.0  0.81802  0.94970  0.00888  1.0000
  Ti  Ti70      1.0  0.11438  0.25969  0.36870  1.0000
  Ti  Ti71      1.0  0.82450  0.85465  0.18785  1.0000
  Ti  Ti72      1.0  0.18624  0.91992  0.77684  1.0000
  Ti  Ti73      1.0  0.50411  0.44759  0.11002  1.0000
  Ti  Ti74      1.0  0.64362  0.55246  0.38093  1.0000
  Ti  Ti75      1.0  0.40565  0.14439  0.83468  1.0000
  Ti  Ti76      1.0  0.37239  0.09165  0.66841  1.0000
  Ti  Ti77      1.0  0.81425  0.56066  0.62373  1.0000
  Ti  Ti78      1.0  0.34558  0.81375  0.59499  1.0000
  Ti  Ti79      1.0  0.33721  0.67007  0.82335  1.0000
  Ti  Ti80      1.0  0.24284  0.05407  0.08258  1.0000
  Ti  Ti81      1.0  0.74191  0.66649  0.85316  1.0000
  Ti  Ti82      1.0  0.85677  0.38306  0.26720  1.0000
  Ti  Ti83      1.0  0.02399  0.41573  0.85447  1.0000
  Ti  Ti84      1.0  0.51608  0.21210  0.59114  1.0000
  Ti  Ti85      1.0  0.85707  0.64609  0.70072  1.0000
  Ti  Ti86      1.0  0.61404  0.23971  0.85701  1.0000
  Ti  Ti87      1.0  0.38378  0.15733  0.18264  1.0000
  Ti  Ti88      1.0  0.68690  0.87895  0.23794  1.0000
  Ti  Ti89      1.0  0.34961  0.44876  0.13043  1.0000
  Ti  Ti90      1.0  0.08889  0.43960  0.18358  1.0000
  Ti  Ti91      1.0  0.23496  0.78153  0.19999  1.0000
  Ti  Ti92      1.0  0.82305  0.03510  0.68101  1.0000
  Ti  Ti93      1.0  0.72119  0.29437  0.56417  1.0000
  Ti  Ti94      1.0  0.07659  0.04686  0.94046  1.0000
  Ti  Ti95      1.0  0.91674  0.43095  0.84896  1.0000
  Ti  Ti96      1.0  0.87528  0.33087  0.71338  1.0000
  I   I1        1.0  0.17899  0.91214  0.84488  1.0000
  I   I2        1.0  0.48542  0.65048  0.56093  1.0000
  I   I3        1.0  0.92364  0.91708  0.81096  1.0000
  I   I4        1.0  0.18944  0.82712  0.51101  1.0000
  I   I5        1.0  0.43453  0.39785  0.34391  1.0000
  I   I6        1.0  0.56714  0.94712  0.33343  1.0000
  I   I7        1.0  0.37058  0.62017  0.06136  1.0000
  I   I8        1.0  0.55123  0.88495  0.17605  1.0000
  I   I9        1.0  0.19436  0.42175  0.61140  1.0000
  I   I10       1.0  0.62796  0.77129  0.30915  1.0000
  I   I11       1.0  0.26399  0.09413  0.51248  1.0000
  I   I12       1.0  0.22121  0.05830  0.61063  1.0000
  I   I13       1.0  0.82329  0.76586  0.54074  1.0000
  I   I14       1.0  0.23429  0.49112  0.00756  1.0000
  I   I15       1.0  0.77624  0.57038  0.67218  1.0000
  I   I16       1.0  0.58715  0.79751  0.22428  1.0000
  I   I17       1.0  0.26787  0.42709  0.31469  1.0000
  I   I18       1.0  0.24678  0.23782  0.09313  1.0000
  I   I19       1.0  0.18302  0.50976  0.12898  1.0000
  I   I20       1.0  0.33141  0.09339  0.51809  1.0000
  I   I21       1.0  0.36717  0.63327  0.96844  1.0000
  I   I22       1.0  0.99571  0.76310  0.57180  1.0000
  I   I23       1.0  0.85141  0.82394  0.22041  1.0000
  I   I24       1.0  0.19223  0.20830  0.37044  1.0000
  I   I25       1.0  0.71156  0.53570  0.48426  1.0000
  I   I26       1.0  0.41599  0.10462  0.84265  1.0000
  I   I27       1.0  0.45708  0.48572  0.16813  1.0000
  I   I28       1.0  0.39577  0.14621  0.67439  1.0000
  I   I29       1.0  0.34662  0.78309  0.55871  1.0000
  I   I30       1.0  0.46751  0.84961  0.79832  1.0000
  I   I31       1.0  0.22747  0.09263  0.07040  1.0000
  I   I32       1.0  0.77988  0.63771  0.85315  1.0000
  I   I33       1.0  0.33667  0.63435  0.82173  1.0000
  I   I34       1.0  0.85353  0.65414  0.14148  1.0000
  I   I35       1.0  0.54180  0.18123  0.63403  1.0000
  I   I36       1.0  0.66242  0.56120  0.86908  1.0000
  I   I37       1.0  0.88248  0.61621  0.66528  1.0000
  I   I38       1.0  0.86788  0.54722  0.93620  1.0000
  I   I39       1.0  0.90672  0.66771  0.62715  1.0000
  I   I40       1.0  0.93998  0.43736  0.10031  1.0000
  I   I41       1.0  0.11097  0.45764  0.17033  1.0000
  I   I42       1.0  0.54887  0.73813  0.25608  1.0000
  I   I43       1.0  0.32033  0.77845  0.90055  1.0000
  I   I44       1.0  0.97560  0.42796  0.18708  1.0000
  I   I45       1.0  0.35835  0.16146  0.24340  1.0000
  I   I46       1.0  0.88337  0.43314  0.88522  1.0000
  I   I47       1.0  0.13680  0.96700  0.86141  1.0000
  I   I48       1.0  0.10123  0.04728  0.88474  1.0000
  I   I49       1.0  0.93428  0.93625  0.93265  1.0000
  I   I50       1.0  0.44157  0.70893  0.56188  1.0000
  I   I51       1.0  0.49637  0.69421  0.58698  1.0000
  I   I52       1.0  0.21125  0.05034  0.06184  1.0000
  I   I53       1.0  0.14926  0.79278  0.45805  1.0000
  I   I54       1.0  0.59483  0.92644  0.42459  1.0000
  I   I55       1.0  0.60059  0.32552  0.82481  1.0000
  I   I56       1.0  0.31691  0.63906  0.04423  1.0000
  I   I57       1.0  0.92330  0.45837  0.87457  1.0000
  I   I58       1.0  0.63980  0.73119  0.23217  1.0000
  I   I59       1.0  0.43062  0.57574  0.99441  1.0000
  I   I60       1.0  0.92651  0.08533  0.56275  1.0000
  I   I61       1.0  0.81351  0.81475  0.48490  1.0000
  I   I62       1.0  0.87546  0.74461  0.53841  1.0000
  I   I63       1.0  0.19781  0.47431  0.04127  1.0000
  I   I64       1.0  0.15420  0.44263  0.32632  1.0000
  I   I65       1.0  0.16399  0.78674  0.89454  1.0000
  I   I66       1.0  0.27332  0.38496  0.24093  1.0000
  I   I67       1.0  0.92882  0.00827  0.86878  1.0000
  I   I68       1.0  0.18394  0.57889  0.11054  1.0000
  I   I69       1.0  0.84820  0.94682  0.97318  1.0000
  I   I70       1.0  0.12109  0.26435  0.44003  1.0000
  I   I71       1.0  0.01918  0.79634  0.55652  1.0000
  I   I72       1.0  0.11766  0.92035  0.84047  1.0000
  I   I73       1.0  0.52849  0.42012  0.17926  1.0000
  I   I74       1.0  0.75361  0.93647  0.00269  1.0000
  I   I75       1.0  0.79419  0.91281  0.09062  1.0000
  I   I76       1.0  0.80553  0.53442  0.58469  1.0000
  I   I77       1.0  0.83449  0.58038  0.69218  1.0000
  I   I78       1.0  0.84067  0.17130  0.92092  1.0000
  I   I79       1.0  0.50445  0.52757  0.33172  1.0000
  I   I80       1.0  0.34205  0.66282  0.30354  1.0000
  I   I81       1.0  0.52311  0.76634  0.97199  1.0000
  I   I82       1.0  0.87290  0.35849  0.20726  1.0000
  I   I83       1.0  0.04133  0.37431  0.86693  1.0000
  I   I84       1.0  0.50775  0.18524  0.55664  1.0000
  I   I85       1.0  0.85795  0.66975  0.62205  1.0000
  I   I86       1.0  0.23821  0.39868  0.34982  1.0000
  I   I87       1.0  0.84509  0.59989  0.98649  1.0000
  I   I88       1.0  0.59746  0.68709  0.31521  1.0000
  I   I89       1.0  0.91050  0.40467  0.16984  1.0000
  I   I90       1.0  0.12357  0.41295  0.15585  1.0000
  I   I91       1.0  0.24178  0.80963  0.16703  1.0000
  I   I92       1.0  0.84114  0.99936  0.71702  1.0000
  I   I93       1.0  0.97316  0.38925  0.13628  1.0000
  I   I94       1.0  0.08766  0.01032  0.93660  1.0000
  I   I95       1.0  0.66601  0.00248  0.04229  1.0000
  I   I96       1.0  0.87553  0.36014  0.66376  1.0000
  I   I97       1.0  0.11804  0.04705  0.12485  1.0000
  I   I98       1.0  0.81579  0.13393  0.89419  1.0000
  I   I99       1.0  0.39665  0.70380  0.53439  1.0000
  I   I100      1.0  0.11440  0.27401  0.02560  1.0000
  I   I101      1.0  0.65891  0.89649  0.19215  1.0000
  I   I102      1.0  0.23077  0.03489  0.71175  1.0000
  I   I103      1.0  0.60017  0.27605  0.88308  1.0000
  I   I104      1.0  0.55124  0.72787  0.05891  1.0000
  I   I105      1.0  0.24851  0.31544  0.53324  1.0000
  I   I106      1.0  0.98274  0.11237  0.60418  1.0000
  I   I107      1.0  0.61372  0.72936  0.31250  1.0000
  I   I108      1.0  0.98570  0.08591  0.71185  1.0000
  I   I109      1.0  0.79984  0.56373  0.77364  1.0000
  I   I110      1.0  0.85598  0.76921  0.41208  1.0000
  I   I111      1.0  0.22613  0.51848  0.10029  1.0000
  I   I112      1.0  0.22301  0.24740  0.99502  1.0000
  I   I113      1.0  0.22462  0.75366  0.93810  1.0000
  I   I114      1.0  0.03838  0.02072  0.63784  1.0000
  I   I115      1.0  0.16528  0.18943  0.42403  1.0000
  I   I116      1.0  0.17904  0.17210  0.32347  1.0000
  I   I117      1.0  0.48228  0.19910  0.24490  1.0000
  I   I118      1.0  0.86633  0.30922  0.56947  1.0000
  I   I119      1.0  0.10285  0.29325  0.33027  1.0000
  I   I120      1.0  0.22255  0.91803  0.76816  1.0000
  I   I121      1.0  0.48358  0.47188  0.05422  1.0000
  I   I122      1.0  0.71847  0.48920  0.42240  1.0000
  I   I123      1.0  0.37523  0.18532  0.83145  1.0000
  I   I124      1.0  0.43047  0.84494  0.89795  1.0000
  I   I125      1.0  0.38226  0.13641  0.77581  1.0000
  I   I126      1.0  0.37092  0.80252  0.65315  1.0000
  I   I127      1.0  0.49227  0.47657  0.36044  1.0000
  I   I128      1.0  0.08465  0.32900  0.98866  1.0000
  I   I129      1.0  0.73524  0.69925  0.88341  1.0000
  I   I130      1.0  0.53617  0.28159  0.60541  1.0000
  I   I131      1.0  0.88505  0.35579  0.30946  1.0000
  I   I132      1.0  0.81023  0.69561  0.22082  1.0000
  I   I133      1.0  0.89650  0.56228  0.03325  1.0000
  I   I134      1.0  0.24275  0.33304  0.95470  1.0000
  I   I135      1.0  0.21615  0.43781  0.25248  1.0000
  I   I136      1.0  0.06756  0.44242  0.25005  1.0000
  I   I137      1.0  0.69713  0.50055  0.72911  1.0000
  I   I138      1.0  0.32406  0.47461  0.18244  1.0000
  I   I139      1.0  0.19752  0.79244  0.21381  1.0000
  I   I140      1.0  0.79090  0.04188  0.64317  1.0000
  I   I141      1.0  0.69992  0.29222  0.51340  1.0000
  I   I142      1.0  0.05181  0.09376  0.92335  1.0000
  I   I143      1.0  0.11828  0.00123  0.09350  1.0000
  I   I144      1.0  0.85518  0.34939  0.76980  1.0000
  I   I145      1.0  0.88100  0.11587  0.92775  1.0000
  I   I146      1.0  0.47083  0.71597  0.47938  1.0000
  I   I147      1.0  0.11932  0.98771  0.20358  1.0000
  I   I148      1.0  0.74368  0.51417  0.75051  1.0000
  I   I149      1.0  0.17829  0.04318  0.67190  1.0000
  I   I150      1.0  0.46553  0.33990  0.41200  1.0000
  I   I151      1.0  0.55398  0.77850  0.09952  1.0000
  I   I152      1.0  0.37171  0.66861  0.04272  1.0000
  I   I153      1.0  0.21535  0.38674  0.50679  1.0000
  I   I154      1.0  0.98942  0.86592  0.80771  1.0000
  I   I155      1.0  0.28009  0.12277  0.44875  1.0000
  I   I156      1.0  0.96038  0.09433  0.50359  1.0000
  I   I157      1.0  0.79002  0.61339  0.74361  1.0000
  I   I158      1.0  0.15320  0.54154  0.04691  1.0000
  I   I159      1.0  0.78500  0.74595  0.97698  1.0000
  I   I160      1.0  0.28287  0.18009  0.04594  1.0000
  I   I161      1.0  0.06019  0.97810  0.54475  1.0000
  I   I162      1.0  0.21256  0.20499  0.07505  1.0000
  I   I163      1.0  0.89736  0.06266  0.81773  1.0000
  I   I164      1.0  0.54312  0.15402  0.19125  1.0000
  I   I165      1.0  0.27186  0.68615  0.10884  1.0000
  I   I166      1.0  0.90766  0.29586  0.69933  1.0000
  I   I167      1.0  0.95703  0.82736  0.59326  1.0000
  I   I168      1.0  0.70501  0.27248  0.75060  1.0000
  I   I169      1.0  0.66188  0.54103  0.44675  1.0000
  I   I170      1.0  0.66394  0.51632  0.35482  1.0000
  I   I171      1.0  0.49882  0.46755  0.24879  1.0000
  I   I172      1.0  0.35526  0.12774  0.71480  1.0000
  I   I173      1.0  0.30216  0.84816  0.52785  1.0000
  I   I174      1.0  0.44455  0.81017  0.80612  1.0000
  I   I175      1.0  0.36032  0.65678  0.42481  1.0000
  I   I176      1.0  0.56214  0.72122  0.92322  1.0000
  I   I177      1.0  0.31339  0.69553  0.77512  1.0000
  I   I178      1.0  0.82438  0.41353  0.30420  1.0000
  I   I179      1.0  0.04863  0.42936  0.84181  1.0000
  I   I180      1.0  0.49958  0.23960  0.53265  1.0000
  I   I181      1.0  0.83158  0.64497  0.65680  1.0000
  I   I182      1.0  0.64142  0.22500  0.80582  1.0000
  I   I183      1.0  0.34514  0.23522  0.30136  1.0000
  I   I184      1.0  0.66853  0.86911  0.28613  1.0000
  I   I185      1.0  0.38367  0.42124  0.16030  1.0000
  I   I186      1.0  0.03103  0.50401  0.29535  1.0000
  I   I187      1.0  0.81855  0.05825  0.74178  1.0000
  I   I188      1.0  0.96566  0.39258  0.24110  1.0000
  I   I189      1.0  0.36896  0.17982  0.33957  1.0000
  I   I190      1.0  0.60927  0.03667  0.07486  1.0000
  I   I191      1.0  0.08039  0.11373  0.46890  1.0000
  I   I192      1.0  0.07351  0.04229  0.16158  1.0000
  I   I193      1.0  0.34877  0.86549  0.46871  1.0000
  I   I194      1.0  0.07812  0.14784  0.56022  1.0000
  I   I195      1.0  0.11029  0.03984  0.21453  1.0000
  I   I196      1.0  0.07418  0.28936  0.10011  1.0000
  I   I197      1.0  0.35463  0.76077  0.79753  1.0000
  I   I198      1.0  0.39779  0.37472  0.39359  1.0000
  I   I199      1.0  0.60031  0.71843  0.01955  1.0000
  I   I200      1.0  0.52185  0.94479  0.16637  1.0000
  I   I201      1.0  0.28006  0.33688  0.50439  1.0000
  I   I202      1.0  0.44789  0.53612  0.90075  1.0000
  I   I203      1.0  0.80441  0.93147  0.95687  1.0000
  I   I204      1.0  0.94531  0.14207  0.67487  1.0000
  I   I205      1.0  0.84490  0.73959  0.46141  1.0000
  I   I206      1.0  0.01639  0.37280  0.95634  1.0000
  I   I207      1.0  0.79538  0.60219  0.62533  1.0000
  I   I208      1.0  0.15384  0.49193  0.37016  1.0000
  I   I209      1.0  0.06755  0.95087  0.63027  1.0000
  I   I210      1.0  0.36257  0.67660  0.77573  1.0000
  I   I211      1.0  0.11483  0.22281  0.35544  1.0000
  I   I212      1.0  0.14915  0.56538  0.14091  1.0000
  I   I213      1.0  0.81246  0.98561  0.03313  1.0000
  I   I214      1.0  0.91452  0.30791  0.59369  1.0000
  I   I215      1.0  0.96292  0.80115  0.48484  1.0000
  I   I216      1.0  0.70933  0.32179  0.62407  1.0000
  I   I217      1.0  0.72843  0.53429  0.38820  1.0000
  I   I218      1.0  0.44058  0.14128  0.81666  1.0000
  I   I219      1.0  0.47837  0.43102  0.13666  1.0000
  I   I220      1.0  0.84222  0.55907  0.58210  1.0000
  I   I221      1.0  0.29675  0.90651  0.51667  1.0000
  I   I222      1.0  0.34983  0.12766  0.62272  1.0000
  I   I223      1.0  0.35319  0.70389  0.36832  1.0000
  I   I224      1.0  0.57556  0.76832  0.95910  1.0000
  I   I225      1.0  0.46200  0.51726  0.28004  1.0000
  I   I226      1.0  0.86299  0.41054  0.23081  1.0000
  I   I227      1.0  0.80428  0.69215  0.09200  1.0000
  I   I228      1.0  0.48032  0.28441  0.62718  1.0000
  I   I229      1.0  0.09981  0.98223  0.61506  1.0000
  I   I230      1.0  0.30920  0.28690  0.97365  1.0000
  I   I231      1.0  0.83825  0.55379  0.02866  1.0000
  I   I232      1.0  0.00464  0.37134  0.06919  1.0000
  I   I233      1.0  0.87302  0.43586  0.09615  1.0000
  I   I234      1.0  0.00303  0.47671  0.26312  1.0000
  I   I235      1.0  0.97558  0.91708  0.85024  1.0000
  I   I236      1.0  0.75869  0.28236  0.55782  1.0000
  I   I237      1.0  0.25300  0.76096  0.25932  1.0000
  I   I238      1.0  0.91328  0.43898  0.77578  1.0000
  I   I239      1.0  0.85116  0.32933  0.66834  1.0000
  I   I240      1.0  0.05820  0.04332  0.82059  1.0000
  I   I241      1.0  0.86382  0.14055  0.82661  1.0000
  I   I242      1.0  0.42713  0.64739  0.51231  1.0000
  I   I243      1.0  0.63760  0.96510  0.09661  1.0000
  I   I244      1.0  0.69002  0.90935  0.27260  1.0000
  I   I245      1.0  0.15535  0.80080  0.56991  1.0000
  I   I246      1.0  0.43776  0.34990  0.30016  1.0000
  I   I247      1.0  0.59716  0.26897  0.79578  1.0000
  I   I248      1.0  0.32627  0.67591  0.96895  1.0000
  I   I249      1.0  0.25415  0.37584  0.59070  1.0000
  I   I250      1.0  0.47875  0.52792  0.98861  1.0000
  I   I251      1.0  0.32507  0.04946  0.48867  1.0000
  I   I252      1.0  0.96804  0.07063  0.61945  1.0000
  I   I253      1.0  0.79710  0.79397  0.40116  1.0000
  I   I254      1.0  0.04176  0.38690  0.02667  1.0000
  I   I255      1.0  0.74893  0.71845  0.00549  1.0000
  I   I256      1.0  0.21525  0.76474  0.82545  1.0000
  I   I257      1.0  0.89017  0.64474  0.74261  1.0000
  I   I258      1.0  0.19413  0.27726  0.08331  1.0000
  I   I259      1.0  0.14861  0.24789  0.32885  1.0000
  I   I260      1.0  0.50184  0.13573  0.24066  1.0000
  I   I261      1.0  0.31870  0.70182  0.07126  1.0000
  I   I262      1.0  0.85554  0.36317  0.58072  1.0000
  I   I263      1.0  0.82045  0.85377  0.11064  1.0000
  I   I264      1.0  0.48355  0.22874  0.63023  1.0000
  I   I265      1.0  0.67340  0.56275  0.36062  1.0000
  I   I266      1.0  0.77678  0.96663  0.03280  1.0000
  I   I267      1.0  0.50771  0.47728  0.14345  1.0000
  I   I268      1.0  0.40074  0.06008  0.70740  1.0000
  I   I269      1.0  0.31348  0.81630  0.63031  1.0000
  I   I270      1.0  0.41083  0.09124  0.63281  1.0000
  I   I271      1.0  0.30864  0.66549  0.37650  1.0000
  I   I272      1.0  0.74756  0.66946  0.77928  1.0000
  I   I273      1.0  0.51457  0.51161  0.24728  1.0000
  I   I274      1.0  0.72474  0.55004  0.87708  1.0000
  I   I275      1.0  0.83547  0.72113  0.14278  1.0000
  I   I276      1.0  0.54661  0.22757  0.59686  1.0000
  I   I277      1.0  0.82525  0.37175  0.30343  1.0000
  I   I278      1.0  0.30918  0.31762  0.89021  1.0000
  I   I279      1.0  0.31860  0.21243  0.26739  1.0000
  I   I280      1.0  0.75832  0.45811  0.77267  1.0000
  I   I281      1.0  0.90975  0.44974  0.20131  1.0000
  I   I282      1.0  0.04957  0.47030  0.15990  1.0000
  I   I283      1.0  0.96099  0.88213  0.93065  1.0000
  I   I284      1.0  0.70230  0.31743  0.80133  1.0000
  I   I285      1.0  0.41572  0.13285  0.20927  1.0000
  I   I286      1.0  0.90962  0.40007  0.82328  1.0000
  I   I287      1.0  0.11161  0.95821  0.75915  1.0000
  I   I288      1.0  0.05305  0.09575  0.82410  1.0000
  I   I289      1.0  0.96267  0.88782  0.72200  1.0000
  I   I290      1.0  0.12252  0.08324  0.55416  1.0000
  I   I291      1.0  0.45243  0.68320  0.47238  1.0000
  I   I292      1.0  0.74348  0.47652  0.65219  1.0000
  I   I293      1.0  0.13404  0.84545  0.50382  1.0000
  I   I294      1.0  0.55212  0.91025  0.40168  1.0000
  I   I295      1.0  0.63533  0.28223  0.75238  1.0000
  I   I296      1.0  0.49141  0.90817  0.17173  1.0000
  I   I297      1.0  0.22730  0.35280  0.62017  1.0000
  I   I298      1.0  0.35068  0.81538  0.84136  1.0000
  I   I299      1.0  0.09802  0.49162  0.34266  1.0000
  I   I300      1.0  0.72683  0.26237  0.59981  1.0000
  I   I301      1.0  0.71311  0.78170  0.97933  1.0000
  I   I302      1.0  0.77661  0.77057  0.48150  1.0000
  I   I303      1.0  0.56895  0.76757  0.29796  1.0000
  I   I304      1.0  0.17383  0.25392  0.01319  1.0000
  I   I305      1.0  0.12636  0.46832  0.44391  1.0000
  I   I306      1.0  0.65266  0.27376  0.86801  1.0000
  I   I307      1.0  0.86805  0.06403  0.90263  1.0000
  I   I308      1.0  0.19858  0.53625  0.99650  1.0000
  I   I309      1.0  0.32957  0.65238  0.14839  1.0000
  I   I310      1.0  0.91248  0.90105  0.87993  1.0000
  I   I311      1.0  0.78644  0.87300  0.20449  1.0000
  I   I312      1.0  0.21535  0.87779  0.77745  1.0000
  I   I313      1.0  0.53922  0.42857  0.08668  1.0000
  I   I314      1.0  0.60862  0.56010  0.41793  1.0000
  I   I315      1.0  0.40564  0.16050  0.90090  1.0000
  I   I316      1.0  0.36461  0.06958  0.62034  1.0000
  I   I317      1.0  0.42959  0.09073  0.73331  1.0000
  I   I318      1.0  0.33386  0.86354  0.59377  1.0000
  I   I319      1.0  0.36139  0.66483  0.87812  1.0000
  I   I320      1.0  0.04212  0.31881  0.00335  1.0000
  I   I321      1.0  0.58976  0.72374  0.15290  1.0000
  I   I322      1.0  0.68554  0.60703  0.87842  1.0000
  I   I323      1.0  0.00238  0.42952  0.91485  1.0000
  I   I324      1.0  0.50950  0.27513  0.52153  1.0000
  I   I325      1.0  0.89682  0.69506  0.70269  1.0000
  I   I326      1.0  0.58346  0.23152  0.86921  1.0000
  I   I327      1.0  0.39708  0.18375  0.24649  1.0000
  I   I328      1.0  0.56499  0.73753  0.38236  1.0000
  I   I329      1.0  0.35697  0.46575  0.07667  1.0000
  I   I330      1.0  0.08222  0.40423  0.18762  1.0000
  I   I331      1.0  0.36760  0.14514  0.13034  1.0000
  I   I332      1.0  0.30257  0.81328  0.81477  1.0000
  I   I333      1.0  0.87607  0.47677  0.10366  1.0000
  I   I334      1.0  0.08196  0.05003  0.01051  1.0000
  I   I335      1.0  0.66044  0.99513  0.15494  1.0000
  I   I336      1.0  0.90794  0.32576  0.76071  1.0000
  I   I337      1.0  0.94450  0.94121  0.74803  1.0000
  I   I338      1.0  0.12131  0.13133  0.48813  1.0000
  I   I339      1.0  0.43694  0.66314  0.60255  1.0000
  I   I340      1.0  0.27485  0.03326  0.04028  1.0000
  I   I341      1.0  0.18599  0.09737  0.69023  1.0000
  I   I342      1.0  0.54497  0.95392  0.46797  1.0000
  I   I343      1.0  0.60785  0.75420  0.07895  1.0000
  I   I344      1.0  0.52845  0.91889  0.26206  1.0000
  I   I345      1.0  0.16807  0.38921  0.56933  1.0000
  I   I346      1.0  0.07876  0.26757  0.41702  1.0000
  I   I347      1.0  0.41528  0.52792  0.97069  1.0000
  I   I348      1.0  0.92507  0.14638  0.55890  1.0000
  I   I349      1.0  0.73885  0.75961  0.07955  1.0000
  I   I350      1.0  0.88040  0.78389  0.48957  1.0000
  I   I351      1.0  0.07308  0.34285  0.08190  1.0000
  I   I352      1.0  0.25636  0.17328  0.13652  1.0000
  I   I353      1.0  0.19582  0.72528  0.87588  1.0000
  I   I354      1.0  0.64269  0.22239  0.91918  1.0000
  I   I355      1.0  0.92470  0.06313  0.92071  1.0000
  I   I356      1.0  0.52950  0.15729  0.31072  1.0000
  I   I357      1.0  0.81085  0.88236  0.99393  1.0000
  I   I358      1.0  0.74026  0.25699  0.84880  1.0000
  I   I359      1.0  0.83531  0.88395  0.20720  1.0000
  I   I360      1.0  0.16304  0.96142  0.78217  1.0000
  I   I361      1.0  0.47636  0.43538  0.23296  1.0000
  I   I362      1.0  0.62072  0.56982  0.32040  1.0000
  I   I363      1.0  0.84025  0.93812  0.07203  1.0000
  I   I364      1.0  0.49631  0.79902  0.86688  1.0000
  I   I365      1.0  0.83618  0.53348  0.68419  1.0000
  I   I366      1.0  0.35926  0.82250  0.52936  1.0000
  I   I367      1.0  0.29913  0.68139  0.84574  1.0000
  I   I368      1.0  0.24603  0.04479  0.15111  1.0000
  I   I369      1.0  0.71277  0.65455  0.85455  1.0000
  I   I370      1.0  0.69087  0.57442  0.78539  1.0000
  I   I371      1.0  0.99366  0.42798  0.80285  1.0000
  I   I372      1.0  0.76439  0.27461  0.77956  1.0000
  I   I373      1.0  0.84450  0.68300  0.73141  1.0000
  I   I374      1.0  0.29118  0.28242  0.87045  1.0000
  I   I375      1.0  0.37616  0.19051  0.14638  1.0000
  I   I376      1.0  0.72083  0.84718  0.21874  1.0000
  I   I377      1.0  0.32511  0.43189  0.11632  1.0000
  I   I378      1.0  0.01039  0.51759  0.20142  1.0000
  I   I379      1.0  0.25492  0.75087  0.15484  1.0000
  I   I380      1.0  0.84241  0.03768  0.62516  1.0000
  I   I381      1.0  0.92248  0.11612  0.64448  1.0000
  I   I382      1.0  0.03505  0.05664  0.93030  1.0000
  I   I383      1.0  0.95213  0.40628  0.88224  1.0000
  I   I384      1.0  0.16092  0.90707  0.75606  1.0000
