data_image0
_chemical_formula_structural       Ti96I384
_chemical_formula_sum              "Ti96 I384"
_cell_length_a       42.9317
_cell_length_b       42.8017
_cell_length_c       22.4727
_cell_angle_alpha    88.7757
_cell_angle_beta     88.7757
_cell_angle_gamma    62.1586

_space_group_name_H-M_alt    "P 1"
_space_group_IT_number       1

loop_
  _space_group_symop_operation_xyz
  'x, y, z'

loop_
  _atom_site_type_symbol
  _atom_site_label
  _atom_site_symmetry_multiplicity
  _atom_site_fract_x
  _atom_site_fract_y
  _atom_site_fract_z
  _atom_site_occupancy
  Ti  Ti1       1.0  0.30308  0.07433  0.98559  1.0000
  Ti  Ti2       1.0  0.16209  0.10246  0.35789  1.0000
  Ti  Ti3       1.0  0.26771  0.09128  0.63529  1.0000
  Ti  Ti4       1.0  0.18183  0.36933  0.14863  1.0000
  Ti  Ti5       1.0  0.17068  0.35970  0.48772  1.0000
  Ti  Ti6       1.0  0.18571  0.36592  0.82812  1.0000
  Ti  Ti7       1.0  0.07983  0.65279  0.49299  1.0000
  Ti  Ti8       1.0  0.06432  0.65591  0.81431  1.0000
  Ti  Ti9       1.0  0.08274  0.64418  0.15112  1.0000
  Ti  Ti10      1.0  0.08788  0.88333  0.28153  1.0000
  Ti  Ti11      1.0  0.07344  0.85706  0.60289  1.0000
  Ti  Ti12      1.0  0.09295  0.87737  0.92691  1.0000
  Ti  Ti13      1.0  0.54879  0.03575  0.28164  1.0000
  Ti  Ti14      1.0  0.56466  0.04976  0.60309  1.0000
  Ti  Ti15      1.0  0.56111  0.02686  0.93553  1.0000
  Ti  Ti16      1.0  0.34132  0.40078  0.45018  1.0000
  Ti  Ti17      1.0  0.32799  0.41729  0.77190  1.0000
  Ti  Ti18      1.0  0.37504  0.39733  0.11544  1.0000
  Ti  Ti19      1.0  0.40462  0.67397  0.50103  1.0000
  Ti  Ti20      1.0  0.35846  0.61934  0.96329  1.0000
  Ti  Ti21      1.0  0.32573  0.63070  0.25987  1.0000
  Ti  Ti22      1.0  0.26666  0.88852  0.83447  1.0000
  Ti  Ti23      1.0  0.40804  0.83770  0.34058  1.0000
  Ti  Ti24      1.0  0.46206  0.76511  0.72106  1.0000
  Ti  Ti25      1.0  0.61296  0.21040  0.40941  1.0000
  Ti  Ti26      1.0  0.61762  0.20882  0.73450  1.0000
  Ti  Ti27      1.0  0.63205  0.19383  0.08497  1.0000
  Ti  Ti28      1.0  0.62629  0.38806  0.12079  1.0000
  Ti  Ti29      1.0  0.61969  0.39619  0.47800  1.0000
  Ti  Ti30      1.0  0.62540  0.40222  0.80326  1.0000
  Ti  Ti31      1.0  0.70217  0.54311  0.11868  1.0000
  Ti  Ti32      1.0  0.70627  0.53620  0.45273  1.0000
  Ti  Ti33      1.0  0.72520  0.50565  0.80064  1.0000
  Ti  Ti34      1.0  0.70977  0.76706  0.29902  1.0000
  Ti  Ti35      1.0  0.72234  0.77072  0.62264  1.0000
  Ti  Ti36      1.0  0.71530  0.76736  0.97105  1.0000
  Ti  Ti37      1.0  0.83143  0.11060  0.27499  1.0000
  Ti  Ti38      1.0  0.83839  0.07455  0.61383  1.0000
  Ti  Ti39      1.0  0.83533  0.09445  0.96572  1.0000
  Ti  Ti40      1.0  0.93904  0.28597  0.07066  1.0000
  Ti  Ti41      1.0  0.93357  0.29341  0.40866  1.0000
  Ti  Ti42      1.0  0.95256  0.27072  0.70958  1.0000
  Ti  Ti43      1.0  0.91995  0.52747  0.26513  1.0000
  Ti  Ti44      1.0  0.93610  0.51990  0.59397  1.0000
  Ti  Ti45      1.0  0.91119  0.55301  0.93932  1.0000
  Ti  Ti46      1.0  0.84664  0.89977  0.24141  1.0000
  Ti  Ti47      1.0  0.82151  0.89611  0.57848  1.0000
  Ti  Ti48      1.0  0.82504  0.89078  0.89677  1.0000
  Ti  Ti49      1.0  0.25243  0.12088  0.83111  1.0000
  Ti  Ti50      1.0  0.09784  0.13955  0.22400  1.0000
  Ti  Ti51      1.0  0.17491  0.10157  0.53253  1.0000
  Ti  Ti52      1.0  0.12234  0.43481  0.00548  1.0000
  Ti  Ti53      1.0  0.13766  0.42167  0.31857  1.0000
  Ti  Ti54      1.0  0.13155  0.42131  0.65267  1.0000
  Ti  Ti55      1.0  0.02680  0.69889  0.30886  1.0000
  Ti  Ti56      1.0  0.00812  0.72050  0.64214  1.0000
  Ti  Ti57      1.0  0.01461  0.70946  0.98688  1.0000
  Ti  Ti58      1.0  0.03260  0.92599  0.09581  1.0000
  Ti  Ti59      1.0  0.01548  0.88777  0.41996  1.0000
  Ti  Ti60      1.0  0.02860  0.91183  0.77571  1.0000
  Ti  Ti61      1.0  0.51223  0.08098  0.09743  1.0000
  Ti  Ti62      1.0  0.51047  0.10154  0.44088  1.0000
  Ti  Ti63      1.0  0.50143  0.06637  0.77502  1.0000
  Ti  Ti64      1.0  0.32335  0.44148  0.26224  1.0000
  Ti  Ti65      1.0  0.29247  0.47279  0.60071  1.0000
  Ti  Ti66      1.0  0.27978  0.48043  0.94006  1.0000
  Ti  Ti67      1.0  0.29619  0.67003  0.42684  1.0000
  Ti  Ti68      1.0  0.29202  0.64714  0.79963  1.0000
  Ti  Ti69      1.0  0.23945  0.69347  0.13330  1.0000
  Ti  Ti70      1.0  0.36099  0.82601  0.77620  1.0000
  Ti  Ti71      1.0  0.29025  0.90339  0.27554  1.0000
  Ti  Ti72      1.0  0.43572  0.92380  0.36424  1.0000
  Ti  Ti73      1.0  0.56344  0.23386  0.23446  1.0000
  Ti  Ti74      1.0  0.54271  0.24675  0.58112  1.0000
  Ti  Ti75      1.0  0.57261  0.23870  0.90915  1.0000
  Ti  Ti76      1.0  0.56442  0.45641  0.98209  1.0000
  Ti  Ti77      1.0  0.57318  0.44098  0.29855  1.0000
  Ti  Ti78      1.0  0.56340  0.44998  0.64010  1.0000
  Ti  Ti79      1.0  0.65158  0.58650  0.93483  1.0000
  Ti  Ti80      1.0  0.62807  0.63401  0.23881  1.0000
  Ti  Ti81      1.0  0.67110  0.53959  0.62227  1.0000
  Ti  Ti82      1.0  0.66027  0.83105  0.13411  1.0000
  Ti  Ti83      1.0  0.64145  0.82513  0.46341  1.0000
  Ti  Ti84      1.0  0.65687  0.81951  0.78548  1.0000
  Ti  Ti85      1.0  0.83066  0.16649  0.12531  1.0000
  Ti  Ti86      1.0  0.82594  0.14812  0.46344  1.0000
  Ti  Ti87      1.0  0.81301  0.14366  0.78996  1.0000
  Ti  Ti88      1.0  0.90047  0.31477  0.87807  1.0000
  Ti  Ti89      1.0  0.88740  0.34664  0.22757  1.0000
  Ti  Ti90      1.0  0.88320  0.35582  0.57403  1.0000
  Ti  Ti91      1.0  0.84799  0.60126  0.11741  1.0000
  Ti  Ti92      1.0  0.86720  0.58521  0.44213  1.0000
  Ti  Ti93      1.0  0.88375  0.58437  0.75832  1.0000
  Ti  Ti94      1.0  0.77365  0.93432  0.06992  1.0000
  Ti  Ti95      1.0  0.76949  0.95022  0.42001  1.0000
  Ti  Ti96      1.0  0.75562  0.94848  0.74241  1.0000
  I   I1        1.0  0.13082  0.12811  0.12250  1.0000
  I   I2        1.0  0.15943  0.05846  0.44004  1.0000
  I   I3        1.0  0.23384  0.08852  0.74581  1.0000
  I   I4        1.0  0.11688  0.40293  0.22501  1.0000
  I   I5        1.0  0.10583  0.40979  0.55094  1.0000
  I   I6        1.0  0.11816  0.39929  0.89330  1.0000
  I   I7        1.0  0.01089  0.67288  0.56054  1.0000
  I   I8        1.0  0.99603  0.69030  0.87688  1.0000
  I   I9        1.0  0.02243  0.65077  0.22399  1.0000
  I   I10       1.0  0.03338  0.86627  0.30708  1.0000
  I   I11       1.0  0.01835  0.86707  0.68668  1.0000
  I   I12       1.0  0.03464  0.88717  0.00197  1.0000
  I   I13       1.0  0.48487  0.09444  0.32701  1.0000
  I   I14       1.0  0.50117  0.04225  0.66381  1.0000
  I   I15       1.0  0.49980  0.04655  0.01242  1.0000
  I   I16       1.0  0.27302  0.44979  0.49372  1.0000
  I   I17       1.0  0.26961  0.43802  0.84786  1.0000
  I   I18       1.0  0.30949  0.40456  0.17287  1.0000
  I   I19       1.0  0.32713  0.59327  0.72746  1.0000
  I   I20       1.0  0.22547  0.66706  0.04235  1.0000
  I   I21       1.0  0.26956  0.64421  0.34847  1.0000
  I   I22       1.0  0.26379  0.94849  0.36516  1.0000
  I   I23       1.0  0.35220  0.89967  0.23859  1.0000
  I   I24       1.0  0.39248  0.79587  0.67327  1.0000
  I   I25       1.0  0.56079  0.19797  0.49347  1.0000
  I   I26       1.0  0.56394  0.20111  0.80932  1.0000
  I   I27       1.0  0.57402  0.19364  0.12895  1.0000
  I   I28       1.0  0.56618  0.41252  0.19691  1.0000
  I   I29       1.0  0.55079  0.42555  0.54032  1.0000
  I   I30       1.0  0.55511  0.43385  0.86210  1.0000
  I   I31       1.0  0.62805  0.58174  0.15546  1.0000
  I   I32       1.0  0.65849  0.51574  0.51694  1.0000
  I   I33       1.0  0.65351  0.54955  0.84247  1.0000
  I   I34       1.0  0.63174  0.79704  0.36864  1.0000
  I   I35       1.0  0.65055  0.79030  0.68390  1.0000
  I   I36       1.0  0.64710  0.79725  0.02898  1.0000
  I   I37       1.0  0.77888  0.15798  0.35562  1.0000
  I   I38       1.0  0.77424  0.14294  0.67447  1.0000
  I   I39       1.0  0.79450  0.16823  0.01391  1.0000
  I   I40       1.0  0.86929  0.31541  0.12456  1.0000
  I   I41       1.0  0.86938  0.33018  0.46962  1.0000
  I   I42       1.0  0.88149  0.28930  0.79048  1.0000
  I   I43       1.0  0.85480  0.56416  0.33354  1.0000
  I   I44       1.0  0.87733  0.54221  0.66634  1.0000
  I   I45       1.0  0.83738  0.58276  0.00588  1.0000
  I   I46       1.0  0.76452  0.91674  0.32322  1.0000
  I   I47       1.0  0.75151  0.91375  0.63667  1.0000
  I   I48       1.0  0.76823  0.89809  0.97589  1.0000
  I   I49       1.0  0.27082  0.15259  0.92586  1.0000
  I   I50       1.0  0.08824  0.14271  0.34573  1.0000
  I   I51       1.0  0.20215  0.13925  0.60236  1.0000
  I   I52       1.0  0.15217  0.44701  0.10011  1.0000
  I   I53       1.0  0.17471  0.42072  0.42227  1.0000
  I   I54       1.0  0.16784  0.43293  0.76690  1.0000
  I   I55       1.0  0.04148  0.72186  0.40244  1.0000
  I   I56       1.0  0.04428  0.72598  0.73866  1.0000
  I   I57       1.0  0.05023  0.71345  0.09021  1.0000
  I   I58       1.0  0.02776  0.94657  0.22539  1.0000
  I   I59       1.0  0.01352  0.91256  0.53899  1.0000
  I   I60       1.0  0.05004  0.94019  0.85507  1.0000
  I   I61       1.0  0.55246  0.08802  0.20354  1.0000
  I   I62       1.0  0.52663  0.11912  0.55164  1.0000
  I   I63       1.0  0.52254  0.09140  0.87593  1.0000
  I   I64       1.0  0.34185  0.46450  0.36277  1.0000
  I   I65       1.0  0.29265  0.48959  0.71058  1.0000
  I   I66       1.0  0.29886  0.51321  0.01262  1.0000
  I   I67       1.0  0.33055  0.70613  0.49477  1.0000
  I   I68       1.0  0.31685  0.67823  0.87735  1.0000
  I   I69       1.0  0.27437  0.71288  0.21130  1.0000
  I   I70       1.0  0.35191  0.85459  0.88449  1.0000
  I   I71       1.0  0.44228  0.79523  0.25182  1.0000
  I   I72       1.0  0.48973  0.90164  0.42769  1.0000
  I   I73       1.0  0.55571  0.27007  0.33697  1.0000
  I   I74       1.0  0.56136  0.28066  0.68302  1.0000
  I   I75       1.0  0.59232  0.26222  0.00383  1.0000
  I   I76       1.0  0.60430  0.45739  0.07437  1.0000
  I   I77       1.0  0.59399  0.46220  0.41142  1.0000
  I   I78       1.0  0.59161  0.47019  0.74241  1.0000
  I   I79       1.0  0.67569  0.60284  0.04136  1.0000
  I   I80       1.0  0.65041  0.66310  0.31681  1.0000
  I   I81       1.0  0.69773  0.56413  0.70979  1.0000
  I   I82       1.0  0.68931  0.83834  0.24015  1.0000
  I   I83       1.0  0.67194  0.84341  0.57358  1.0000
  I   I84       1.0  0.67901  0.83164  0.89950  1.0000
  I   I85       1.0  0.85482  0.16078  0.23751  1.0000
  I   I86       1.0  0.86867  0.11699  0.56463  1.0000
  I   I87       1.0  0.85110  0.13706  0.88810  1.0000
  I   I88       1.0  0.92690  0.33982  0.98399  1.0000
  I   I89       1.0  0.91120  0.35984  0.33600  1.0000
  I   I90       1.0  0.93086  0.34580  0.67190  1.0000
  I   I91       1.0  0.89130  0.59862  0.21222  1.0000
  I   I92       1.0  0.90688  0.59226  0.52742  1.0000
  I   I93       1.0  0.88976  0.61193  0.87283  1.0000
  I   I94       1.0  0.80244  0.96282  0.16748  1.0000
  I   I95       1.0  0.78742  0.97305  0.52674  1.0000
  I   I96       1.0  0.76810  0.96942  0.84921  1.0000
  I   I97       1.0  0.27056  0.14468  0.73003  1.0000
  I   I98       1.0  0.28476  0.11491  0.07642  1.0000
  I   I99       1.0  0.18540  0.13912  0.43138  1.0000
  I   I100      1.0  0.19654  0.38691  0.94064  1.0000
  I   I101      1.0  0.20469  0.38754  0.25174  1.0000
  I   I102      1.0  0.19368  0.37917  0.58921  1.0000
  I   I103      1.0  0.09142  0.68181  0.23158  1.0000
  I   I104      1.0  0.07368  0.70064  0.58566  1.0000
  I   I105      1.0  0.08186  0.68920  0.90887  1.0000
  I   I106      1.0  0.09854  0.91267  0.02481  1.0000
  I   I107      1.0  0.06912  0.91233  0.39073  1.0000
  I   I108      1.0  0.09084  0.88946  0.69766  1.0000
  I   I109      1.0  0.58291  0.03073  0.04833  1.0000
  I   I110      1.0  0.57521  0.06984  0.37525  1.0000
  I   I111      1.0  0.56075  0.07884  0.70125  1.0000
  I   I112      1.0  0.39126  0.38170  0.25097  1.0000
  I   I113      1.0  0.35864  0.43110  0.53533  1.0000
  I   I114      1.0  0.34221  0.45438  0.85697  1.0000
  I   I115      1.0  0.33592  0.67478  0.33339  1.0000
  I   I116      1.0  0.40239  0.67999  0.61642  1.0000
  I   I117      1.0  0.32479  0.67293  0.04074  1.0000
  I   I118      1.0  0.40953  0.76051  0.81606  1.0000
  I   I119      1.0  0.25614  0.95116  0.87038  1.0000
  I   I120      1.0  0.45549  0.86444  0.29559  1.0000
  I   I121      1.0  0.62643  0.23651  0.17500  1.0000
  I   I122      1.0  0.59873  0.25644  0.51347  1.0000
  I   I123      1.0  0.61986  0.24801  0.82934  1.0000
  I   I124      1.0  0.63175  0.43826  0.91788  1.0000
  I   I125      1.0  0.64371  0.40543  0.23318  1.0000
  I   I126      1.0  0.63473  0.42502  0.58650  1.0000
  I   I127      1.0  0.72721  0.54210  0.88862  1.0000
  I   I128      1.0  0.69721  0.58520  0.21819  1.0000
  I   I129      1.0  0.73703  0.51055  0.56596  1.0000
  I   I130      1.0  0.72945  0.79934  0.07548  1.0000
  I   I131      1.0  0.71784  0.79792  0.39662  1.0000
  I   I132      1.0  0.72525  0.79543  0.72594  1.0000
  I   I133      1.0  0.86921  0.09460  0.05982  1.0000
  I   I134      1.0  0.86789  0.09373  0.38556  1.0000
  I   I135      1.0  0.85677  0.08084  0.72583  1.0000
  I   I136      1.0  0.97137  0.27648  0.83196  1.0000
  I   I137      1.0  0.95425  0.31642  0.15584  1.0000
  I   I138      1.0  0.95148  0.32675  0.49986  1.0000
  I   I139      1.0  0.91771  0.58217  0.04753  1.0000
  I   I140      1.0  0.93293  0.55371  0.36041  1.0000
  I   I141      1.0  0.95660  0.55304  0.69637  1.0000
  I   I142      1.0  0.82766  0.93257  0.98566  1.0000
  I   I143      1.0  0.83557  0.94255  0.33248  1.0000
  I   I144      1.0  0.81975  0.93153  0.68080  1.0000
  I   I145      1.0  0.31354  0.05830  0.85466  1.0000
  I   I146      1.0  0.14643  0.06943  0.27426  1.0000
  I   I147      1.0  0.25279  0.06612  0.53650  1.0000
  I   I148      1.0  0.13172  0.37319  0.06901  1.0000
  I   I149      1.0  0.12764  0.36785  0.39283  1.0000
  I   I150      1.0  0.15215  0.35803  0.72064  1.0000
  I   I151      1.0  0.07038  0.63021  0.38381  1.0000
  I   I152      1.0  0.03760  0.64214  0.71713  1.0000
  I   I153      1.0  0.04781  0.64067  0.04478  1.0000
  I   I154      1.0  0.07227  0.86567  0.16689  1.0000
  I   I155      1.0  0.06107  0.83170  0.49364  1.0000
  I   I156      1.0  0.06137  0.85278  0.84221  1.0000
  I   I157      1.0  0.52165  0.02294  0.17767  1.0000
  I   I158      1.0  0.53932  0.03384  0.49440  1.0000
  I   I159      1.0  0.56158  0.00800  0.81250  1.0000
  I   I160      1.0  0.30894  0.39862  0.34278  1.0000
  I   I161      1.0  0.28391  0.41542  0.67077  1.0000
  I   I162      1.0  0.33907  0.40583  0.01689  1.0000
  I   I163      1.0  0.39018  0.61751  0.47815  1.0000
  I   I164      1.0  0.31703  0.59685  0.91631  1.0000
  I   I165      1.0  0.29177  0.61876  0.16479  1.0000
  I   I166      1.0  0.30097  0.81431  0.81083  1.0000
  I   I167      1.0  0.34407  0.84475  0.36243  1.0000
  I   I168      1.0  0.49045  0.77908  0.62440  1.0000
  I   I169      1.0  0.61511  0.17371  0.30875  1.0000
  I   I170      1.0  0.59942  0.17967  0.63936  1.0000
  I   I171      1.0  0.63126  0.16310  0.97568  1.0000
  I   I172      1.0  0.59068  0.38511  0.02307  1.0000
  I   I173      1.0  0.60685  0.37758  0.36825  1.0000
  I   I174      1.0  0.58871  0.38874  0.71652  1.0000
  I   I175      1.0  0.66977  0.52714  0.01385  1.0000
  I   I176      1.0  0.66261  0.55520  0.35866  1.0000
  I   I177      1.0  0.69917  0.48072  0.69277  1.0000
  I   I178      1.0  0.69203  0.75508  0.19432  1.0000
  I   I179      1.0  0.67754  0.76313  0.53083  1.0000
  I   I180      1.0  0.69495  0.74918  0.84891  1.0000
  I   I181      1.0  0.78215  0.14534  0.17832  1.0000
  I   I182      1.0  0.80412  0.09558  0.50913  1.0000
  I   I183      1.0  0.80141  0.09355  0.85681  1.0000
  I   I184      1.0  0.91851  0.25729  0.96259  1.0000
  I   I185      1.0  0.90607  0.28292  0.29367  1.0000
  I   I186      1.0  0.91045  0.27961  0.62207  1.0000
  I   I187      1.0  0.87667  0.52730  0.15901  1.0000
  I   I188      1.0  0.89547  0.51644  0.50659  1.0000
  I   I189      1.0  0.89471  0.52871  0.84410  1.0000
  I   I190      1.0  0.82704  0.87694  0.14205  1.0000
  I   I191      1.0  0.80398  0.88169  0.46575  1.0000
  I   I192      1.0  0.79606  0.87380  0.81054  1.0000
  I   I193      1.0  0.36798  0.05536  0.98530  1.0000
  I   I194      1.0  0.15744  0.15224  0.27046  1.0000
  I   I195      1.0  0.31514  0.10444  0.57546  1.0000
  I   I196      1.0  0.24375  0.35184  0.10241  1.0000
  I   I197      1.0  0.23166  0.32185  0.43893  1.0000
  I   I198      1.0  0.25202  0.34546  0.79754  1.0000
  I   I199      1.0  0.13592  0.65174  0.43943  1.0000
  I   I200      1.0  0.12643  0.61580  0.76446  1.0000
  I   I201      1.0  0.13880  0.62579  0.07790  1.0000
  I   I202      1.0  0.13721  0.89540  0.23750  1.0000
  I   I203      1.0  0.11785  0.87313  0.54598  1.0000
  I   I204      1.0  0.14466  0.87348  0.86176  1.0000
  I   I205      1.0  0.61620  0.99366  0.26302  1.0000
  I   I206      1.0  0.62142  0.05553  0.56256  1.0000
  I   I207      1.0  0.63070  0.01093  0.91117  1.0000
  I   I208      1.0  0.40750  0.35932  0.42132  1.0000
  I   I209      1.0  0.38520  0.40103  0.71544  1.0000
  I   I210      1.0  0.43395  0.39685  0.08057  1.0000
  I   I211      1.0  0.40676  0.73451  0.46763  1.0000
  I   I212      1.0  0.41365  0.63218  0.95130  1.0000
  I   I213      1.0  0.38258  0.62227  0.19529  1.0000
  I   I214      1.0  0.25527  0.86610  0.93650  1.0000
  I   I215      1.0  0.44788  0.80239  0.42905  1.0000
  I   I216      1.0  0.50513  0.75815  0.80724  1.0000
  I   I217      1.0  0.64304  0.24721  0.38417  1.0000
  I   I218      1.0  0.66907  0.21361  0.68362  1.0000
  I   I219      1.0  0.68076  0.21615  0.05533  1.0000
  I   I220      1.0  0.69094  0.36200  0.08157  1.0000
  I   I221      1.0  0.68488  0.37904  0.44696  1.0000
  I   I222      1.0  0.68145  0.38274  0.73447  1.0000
  I   I223      1.0  0.76786  0.52237  0.07649  1.0000
  I   I224      1.0  0.74110  0.56931  0.41369  1.0000
  I   I225      1.0  0.78545  0.49419  0.75284  1.0000
  I   I226      1.0  0.77743  0.73954  0.26038  1.0000
  I   I227      1.0  0.77314  0.78206  0.57478  1.0000
  I   I228      1.0  0.77479  0.75330  0.92105  1.0000
  I   I229      1.0  0.88903  0.05800  0.21846  1.0000
  I   I230      1.0  0.88128  0.01394  0.56988  1.0000
  I   I231      1.0  0.89051  0.03834  0.92321  1.0000
  I   I232      1.0  0.00430  0.25236  0.02037  1.0000
  I   I233      1.0  0.98729  0.28104  0.33810  1.0000
  I   I234      1.0  0.01178  0.25280  0.65697  1.0000
  I   I235      1.0  0.98000  0.51419  0.20722  1.0000
  I   I236      1.0  0.99321  0.50662  0.52841  1.0000
  I   I237      1.0  0.97870  0.53023  0.93294  1.0000
  I   I238      1.0  0.91364  0.88961  0.21580  1.0000
  I   I239      1.0  0.88312  0.88811  0.54442  1.0000
  I   I240      1.0  0.87392  0.89439  0.82789  1.0000
  I   I241      1.0  0.30512  0.01249  0.01853  1.0000
  I   I242      1.0  0.23242  0.06040  0.31719  1.0000
  I   I243      1.0  0.31296  0.02292  0.65865  1.0000
  I   I244      1.0  0.20561  0.30159  0.18214  1.0000
  I   I245      1.0  0.16651  0.30978  0.54184  1.0000
  I   I246      1.0  0.19416  0.30561  0.87224  1.0000
  I   I247      1.0  0.11089  0.58880  0.53560  1.0000
  I   I248      1.0  0.06490  0.60190  0.87374  1.0000
  I   I249      1.0  0.10802  0.58115  0.20286  1.0000
  I   I250      1.0  0.13864  0.82167  0.33107  1.0000
  I   I251      1.0  0.12265  0.79351  0.62090  1.0000
  I   I252      1.0  0.13032  0.81049  0.96274  1.0000
  I   I253      1.0  0.53236  0.99593  0.35755  1.0000
  I   I254      1.0  0.59789  0.98029  0.61481  1.0000
  I   I255      1.0  0.56515  0.96536  0.96095  1.0000
  I   I256      1.0  0.33090  0.35185  0.51308  1.0000
  I   I257      1.0  0.35229  0.35062  0.81308  1.0000
  I   I258      1.0  0.41515  0.32452  0.10774  1.0000
  I   I259      1.0  0.47144  0.62979  0.49134  1.0000
  I   I260      1.0  0.39051  0.56404  0.02897  1.0000
  I   I261      1.0  0.35249  0.57331  0.32447  1.0000
  I   I262      1.0  0.20726  0.92369  0.77377  1.0000
  I   I263      1.0  0.39833  0.89400  0.42399  1.0000
  I   I264      1.0  0.49279  0.69819  0.69175  1.0000
  I   I265      1.0  0.65928  0.14968  0.45143  1.0000
  I   I266      1.0  0.65788  0.15132  0.79142  1.0000
  I   I267      1.0  0.67694  0.13477  0.13698  1.0000
  I   I268      1.0  0.63049  0.32706  0.14516  1.0000
  I   I269      1.0  0.62939  0.33431  0.51585  1.0000
  I   I270      1.0  0.63926  0.34508  0.86923  1.0000
  I   I271      1.0  0.71255  0.48489  0.17219  1.0000
  I   I272      1.0  0.74794  0.47282  0.41346  1.0000
  I   I273      1.0  0.74019  0.44608  0.85975  1.0000
  I   I274      1.0  0.71907  0.70757  0.34660  1.0000
  I   I275      1.0  0.75200  0.70433  0.65379  1.0000
  I   I276      1.0  0.72418  0.70665  0.01111  1.0000
  I   I277      1.0  0.80793  0.06648  0.28344  1.0000
  I   I278      1.0  0.79588  0.04908  0.65472  1.0000
  I   I279      1.0  0.80095  0.06206  0.02597  1.0000
  I   I280      1.0  0.94654  0.22539  0.11559  1.0000
  I   I281      1.0  0.94948  0.23681  0.46056  1.0000
  I   I282      1.0  0.96196  0.20745  0.74564  1.0000
  I   I283      1.0  0.92778  0.46948  0.29968  1.0000
  I   I284      1.0  0.96152  0.45832  0.63644  1.0000
  I   I285      1.0  0.93218  0.48102  0.97576  1.0000
  I   I286      1.0  0.86731  0.83669  0.28837  1.0000
  I   I287      1.0  0.85118  0.82877  0.61904  1.0000
  I   I288      1.0  0.86200  0.82788  0.94805  1.0000
  I   I289      1.0  0.23366  0.09562  0.93382  1.0000
  I   I290      1.0  0.06218  0.10205  0.20447  1.0000
  I   I291      1.0  0.17993  0.05897  0.61872  1.0000
  I   I292      1.0  0.05699  0.47679  0.03460  1.0000
  I   I293      1.0  0.07542  0.45724  0.35724  1.0000
  I   I294      1.0  0.07401  0.44513  0.71450  1.0000
  I   I295      1.0  0.96932  0.70187  0.35477  1.0000
  I   I296      1.0  0.95443  0.72979  0.71417  1.0000
  I   I297      1.0  0.95392  0.72207  0.03695  1.0000
  I   I298      1.0  0.97283  0.92158  0.11019  1.0000
  I   I299      1.0  0.97008  0.86229  0.44058  1.0000
  I   I300      1.0  0.96297  0.94449  0.81367  1.0000
  I   I301      1.0  0.44415  0.10572  0.13262  1.0000
  I   I302      1.0  0.44311  0.12768  0.47084  1.0000
  I   I303      1.0  0.45945  0.05338  0.84025  1.0000
  I   I304      1.0  0.26077  0.50039  0.25393  1.0000
  I   I305      1.0  0.22287  0.51236  0.61100  1.0000
  I   I306      1.0  0.23565  0.47016  0.00679  1.0000
  I   I307      1.0  0.29749  0.63405  0.51856  1.0000
  I   I308      1.0  0.22894  0.65116  0.82081  1.0000
  I   I309      1.0  0.19175  0.69697  0.20678  1.0000
  I   I310      1.0  0.30992  0.88226  0.72624  1.0000
  I   I311      1.0  0.26012  0.94289  0.18302  1.0000
  I   I312      1.0  0.39068  0.98051  0.42006  1.0000
  I   I313      1.0  0.50873  0.22511  0.26179  1.0000
  I   I314      1.0  0.49493  0.23365  0.63398  1.0000
  I   I315      1.0  0.53068  0.21896  0.96975  1.0000
  I   I316      1.0  0.50596  0.46859  0.03639  1.0000
  I   I317      1.0  0.51241  0.44265  0.34216  1.0000
  I   I318      1.0  0.50148  0.47198  0.70957  1.0000
  I   I319      1.0  0.58145  0.61297  0.95739  1.0000
  I   I320      1.0  0.56791  0.63897  0.27319  1.0000
  I   I321      1.0  0.60469  0.56079  0.66458  1.0000
  I   I322      1.0  0.59795  0.84590  0.16837  1.0000
  I   I323      1.0  0.58354  0.84377  0.52070  1.0000
  I   I324      1.0  0.59612  0.83674  0.82699  1.0000
  I   I325      1.0  0.78464  0.23343  0.13632  1.0000
  I   I326      1.0  0.77842  0.20697  0.50214  1.0000
  I   I327      1.0  0.75699  0.19920  0.81942  1.0000
  I   I328      1.0  0.83781  0.34261  0.92944  1.0000
  I   I329      1.0  0.82745  0.37253  0.27955  1.0000
  I   I330      1.0  0.81982  0.37348  0.61891  1.0000
  I   I331      1.0  0.78586  0.61890  0.15821  1.0000
  I   I332      1.0  0.80810  0.61012  0.49953  1.0000
  I   I333      1.0  0.81376  0.61722  0.75310  1.0000
  I   I334      1.0  0.72305  0.93442  0.13819  1.0000
  I   I335      1.0  0.71554  0.94812  0.46992  1.0000
  I   I336      1.0  0.69758  0.94368  0.77853  1.0000
  I   I337      1.0  0.18531  0.17663  0.82977  1.0000
  I   I338      1.0  0.03790  0.19416  0.19643  1.0000
  I   I339      1.0  0.10851  0.14226  0.53857  1.0000
  I   I340      1.0  0.12370  0.48409  0.92863  1.0000
  I   I341      1.0  0.14150  0.48487  0.30250  1.0000
  I   I342      1.0  0.12129  0.48118  0.60764  1.0000
  I   I343      1.0  0.00545  0.75868  0.25474  1.0000
  I   I344      1.0  0.97667  0.77870  0.58417  1.0000
  I   I345      1.0  0.00183  0.77136  0.96374  1.0000
  I   I346      1.0  0.01370  0.99123  0.06149  1.0000
  I   I347      1.0  0.97573  0.95510  0.38308  1.0000
  I   I348      1.0  0.00860  0.96754  0.69798  1.0000
  I   I349      1.0  0.50556  0.14064  0.06330  1.0000
  I   I350      1.0  0.49928  0.16411  0.39509  1.0000
  I   I351      1.0  0.45685  0.13121  0.73894  1.0000
  I   I352      1.0  0.35182  0.46525  0.15875  1.0000
  I   I353      1.0  0.30521  0.52242  0.54833  1.0000
  I   I354      1.0  0.23300  0.53122  0.87581  1.0000
  I   I355      1.0  0.24170  0.72782  0.43266  1.0000
  I   I356      1.0  0.27372  0.69831  0.72514  1.0000
  I   I357      1.0  0.19930  0.76216  0.10576  1.0000
  I   I358      1.0  0.42361  0.84013  0.76982  1.0000
  I   I359      1.0  0.25420  0.86933  0.29232  1.0000
  I   I360      1.0  0.44493  0.95904  0.26810  1.0000
  I   I361      1.0  0.52387  0.29051  0.17363  1.0000
  I   I362      1.0  0.49343  0.29394  0.52072  1.0000
  I   I363      1.0  0.52728  0.29727  0.87328  1.0000
  I   I364      1.0  0.54574  0.51947  0.93429  1.0000
  I   I365      1.0  0.54386  0.50501  0.25712  1.0000
  I   I366      1.0  0.53358  0.51499  0.60144  1.0000
  I   I367      1.0  0.64765  0.63970  0.86955  1.0000
  I   I368      1.0  0.61704  0.68046  0.16207  1.0000
  I   I369      1.0  0.65801  0.59658  0.54085  1.0000
  I   I370      1.0  0.65728  0.88486  0.07429  1.0000
  I   I371      1.0  0.63034  0.88908  0.42674  1.0000
  I   I372      1.0  0.63684  0.88582  0.75578  1.0000
  I   I373      1.0  0.86696  0.18450  0.05374  1.0000
  I   I374      1.0  0.86873  0.17407  0.42993  1.0000
  I   I375      1.0  0.84188  0.17774  0.73136  1.0000
  I   I376      1.0  0.89638  0.37342  0.83707  1.0000
  I   I377      1.0  0.87826  0.40719  0.18345  1.0000
  I   I378      1.0  0.87873  0.42094  0.55450  1.0000
  I   I379      1.0  0.82751  0.67272  0.10087  1.0000
  I   I380      1.0  0.84655  0.64723  0.39073  1.0000
  I   I381      1.0  0.88571  0.63637  0.70597  1.0000
  I   I382      1.0  0.73644  0.99580  0.01545  1.0000
  I   I383      1.0  0.73298  0.01445  0.37753  1.0000
  I   I384      1.0  0.71991  0.00874  0.69083  1.0000
