data_image0
_chemical_formula_structural       Ti96I384
_chemical_formula_sum              "Ti96 I384"
_cell_length_a       42.5988
_cell_length_b       42.4997
_cell_length_c       22.4095
_cell_angle_alpha    88.7757
_cell_angle_beta     88.7757
_cell_angle_gamma    62.1586

_space_group_name_H-M_alt    "P 1"
_space_group_IT_number       1

loop_
  _space_group_symop_operation_xyz
  'x, y, z'

loop_
  _atom_site_type_symbol
  _atom_site_label
  _atom_site_symmetry_multiplicity
  _atom_site_fract_x
  _atom_site_fract_y
  _atom_site_fract_z
  _atom_site_occupancy
  Ti  Ti1       1.0  0.25773  0.10771  0.99512  1.0000
  Ti  Ti2       1.0  0.13623  0.10597  0.37039  1.0000
  Ti  Ti3       1.0  0.23432  0.10406  0.62899  1.0000
  Ti  Ti4       1.0  0.19052  0.35224  0.15902  1.0000
  Ti  Ti5       1.0  0.18786  0.36209  0.47504  1.0000
  Ti  Ti6       1.0  0.19010  0.34615  0.81552  1.0000
  Ti  Ti7       1.0  0.08406  0.64410  0.44175  1.0000
  Ti  Ti8       1.0  0.10789  0.65224  0.77705  1.0000
  Ti  Ti9       1.0  0.08963  0.65200  0.10236  1.0000
  Ti  Ti10      1.0  0.10828  0.87204  0.23892  1.0000
  Ti  Ti11      1.0  0.12309  0.89592  0.58370  1.0000
  Ti  Ti12      1.0  0.09740  0.87228  0.90272  1.0000
  Ti  Ti13      1.0  0.52405  0.02480  0.29123  1.0000
  Ti  Ti14      1.0  0.52331  0.02052  0.61710  1.0000
  Ti  Ti15      1.0  0.53007  0.04451  0.95893  1.0000
  Ti  Ti16      1.0  0.36432  0.41161  0.43353  1.0000
  Ti  Ti17      1.0  0.35384  0.43861  0.76267  1.0000
  Ti  Ti18      1.0  0.32341  0.43018  0.08936  1.0000
  Ti  Ti19      1.0  0.39141  0.63173  0.49674  1.0000
  Ti  Ti20      1.0  0.35542  0.65352  0.94188  1.0000
  Ti  Ti21      1.0  0.35013  0.63169  0.24267  1.0000
  Ti  Ti22      1.0  0.35134  0.86299  0.91377  1.0000
  Ti  Ti23      1.0  0.38827  0.83936  0.40910  1.0000
  Ti  Ti24      1.0  0.50519  0.72146  0.71903  1.0000
  Ti  Ti25      1.0  0.62933  0.19923  0.36496  1.0000
  Ti  Ti26      1.0  0.62070  0.20872  0.73414  1.0000
  Ti  Ti27      1.0  0.59522  0.22011  0.03429  1.0000
  Ti  Ti28      1.0  0.63787  0.40213  0.13294  1.0000
  Ti  Ti29      1.0  0.63209  0.39590  0.47876  1.0000
  Ti  Ti30      1.0  0.62311  0.39614  0.84194  1.0000
  Ti  Ti31      1.0  0.68068  0.57911  0.07247  1.0000
  Ti  Ti32      1.0  0.70863  0.54817  0.39835  1.0000
  Ti  Ti33      1.0  0.72331  0.50866  0.74790  1.0000
  Ti  Ti34      1.0  0.73517  0.74890  0.29180  1.0000
  Ti  Ti35      1.0  0.70482  0.75396  0.66007  1.0000
  Ti  Ti36      1.0  0.72488  0.75490  0.99359  1.0000
  Ti  Ti37      1.0  0.87017  0.06483  0.28613  1.0000
  Ti  Ti38      1.0  0.85064  0.09324  0.61489  1.0000
  Ti  Ti39      1.0  0.85647  0.07208  0.95468  1.0000
  Ti  Ti40      1.0  0.91558  0.29557  0.08144  1.0000
  Ti  Ti41      1.0  0.91501  0.29972  0.42610  1.0000
  Ti  Ti42      1.0  0.91431  0.30658  0.76134  1.0000
  Ti  Ti43      1.0  0.92087  0.54659  0.31037  1.0000
  Ti  Ti44      1.0  0.91303  0.53402  0.62585  1.0000
  Ti  Ti45      1.0  0.90860  0.52642  0.94897  1.0000
  Ti  Ti46      1.0  0.82985  0.89194  0.25901  1.0000
  Ti  Ti47      1.0  0.83807  0.88344  0.58327  1.0000
  Ti  Ti48      1.0  0.84184  0.88206  0.90648  1.0000
  Ti  Ti49      1.0  0.21039  0.13440  0.83020  1.0000
  Ti  Ti50      1.0  0.08258  0.13474  0.20951  1.0000
  Ti  Ti51      1.0  0.12929  0.12666  0.55330  1.0000
  Ti  Ti52      1.0  0.13359  0.40113  0.97867  1.0000
  Ti  Ti53      1.0  0.12170  0.40852  0.32913  1.0000
  Ti  Ti54      1.0  0.12385  0.40982  0.66374  1.0000
  Ti  Ti55      1.0  0.03578  0.70561  0.26699  1.0000
  Ti  Ti56      1.0  0.04000  0.70558  0.61905  1.0000
  Ti  Ti57      1.0  0.04013  0.71267  0.94802  1.0000
  Ti  Ti58      1.0  0.03813  0.91185  0.08497  1.0000
  Ti  Ti59      1.0  0.06824  0.93685  0.39825  1.0000
  Ti  Ti60      1.0  0.03935  0.91271  0.73082  1.0000
  Ti  Ti61      1.0  0.45950  0.07673  0.11847  1.0000
  Ti  Ti62      1.0  0.45083  0.06360  0.45807  1.0000
  Ti  Ti63      1.0  0.47739  0.09836  0.78310  1.0000
  Ti  Ti64      1.0  0.27569  0.49278  0.26738  1.0000
  Ti  Ti65      1.0  0.29856  0.46939  0.58758  1.0000
  Ti  Ti66      1.0  0.28423  0.49233  0.90980  1.0000
  Ti  Ti67      1.0  0.30073  0.67377  0.43104  1.0000
  Ti  Ti68      1.0  0.28975  0.67799  0.80437  1.0000
  Ti  Ti69      1.0  0.28678  0.68799  0.09822  1.0000
  Ti  Ti70      1.0  0.41893  0.79554  0.79410  1.0000
  Ti  Ti71      1.0  0.30215  0.90029  0.36925  1.0000
  Ti  Ti72      1.0  0.41837  0.89212  0.50641  1.0000
  Ti  Ti73      1.0  0.54173  0.23843  0.21147  1.0000
  Ti  Ti74      1.0  0.57510  0.22680  0.54024  1.0000
  Ti  Ti75      1.0  0.52847  0.25430  0.87244  1.0000
  Ti  Ti76      1.0  0.56679  0.44928  0.98255  1.0000
  Ti  Ti77      1.0  0.57659  0.44206  0.31885  1.0000
  Ti  Ti78      1.0  0.58539  0.43102  0.65891  1.0000
  Ti  Ti79      1.0  0.64914  0.59483  0.88685  1.0000
  Ti  Ti80      1.0  0.60838  0.66430  0.19118  1.0000
  Ti  Ti81      1.0  0.67740  0.55928  0.57219  1.0000
  Ti  Ti82      1.0  0.66510  0.81768  0.15368  1.0000
  Ti  Ti83      1.0  0.68338  0.80467  0.47325  1.0000
  Ti  Ti84      1.0  0.65722  0.81413  0.82796  1.0000
  Ti  Ti85      1.0  0.84045  0.13651  0.12316  1.0000
  Ti  Ti86      1.0  0.83680  0.14860  0.42780  1.0000
  Ti  Ti87      1.0  0.83815  0.15510  0.79697  1.0000
  Ti  Ti88      1.0  0.86028  0.36372  0.92787  1.0000
  Ti  Ti89      1.0  0.85211  0.34864  0.25783  1.0000
  Ti  Ti90      1.0  0.85399  0.34861  0.60111  1.0000
  Ti  Ti91      1.0  0.88454  0.58279  0.13503  1.0000
  Ti  Ti92      1.0  0.86591  0.61425  0.46649  1.0000
  Ti  Ti93      1.0  0.86920  0.59181  0.79134  1.0000
  Ti  Ti94      1.0  0.77634  0.93038  0.08283  1.0000
  Ti  Ti95      1.0  0.77086  0.93491  0.43059  1.0000
  Ti  Ti96      1.0  0.77989  0.93465  0.73553  1.0000
  I   I1        1.0  0.12198  0.09829  0.12478  1.0000
  I   I2        1.0  0.12018  0.08433  0.47162  1.0000
  I   I3        1.0  0.20050  0.09814  0.74389  1.0000
  I   I4        1.0  0.12079  0.37207  0.22702  1.0000
  I   I5        1.0  0.12781  0.37026  0.55251  1.0000
  I   I6        1.0  0.12036  0.36924  0.87930  1.0000
  I   I7        1.0  0.01319  0.68339  0.50783  1.0000
  I   I8        1.0  0.03186  0.68573  0.83516  1.0000
  I   I9        1.0  0.02094  0.70172  0.14457  1.0000
  I   I10       1.0  0.05160  0.88832  0.32686  1.0000
  I   I11       1.0  0.06290  0.87779  0.62584  1.0000
  I   I12       1.0  0.04195  0.87365  0.98243  1.0000
  I   I13       1.0  0.45591  0.03404  0.35260  1.0000
  I   I14       1.0  0.45483  0.07193  0.68796  1.0000
  I   I15       1.0  0.45746  0.05657  0.99612  1.0000
  I   I16       1.0  0.30362  0.41722  0.51149  1.0000
  I   I17       1.0  0.27755  0.46866  0.79389  1.0000
  I   I18       1.0  0.25204  0.47587  0.15730  1.0000
  I   I19       1.0  0.26390  0.64474  0.73786  1.0000
  I   I20       1.0  0.29364  0.64596  0.98693  1.0000
  I   I21       1.0  0.29488  0.63469  0.30904  1.0000
  I   I22       1.0  0.25121  0.93621  0.43880  1.0000
  I   I23       1.0  0.35146  0.91528  0.44192  1.0000
  I   I24       1.0  0.43100  0.74196  0.70442  1.0000
  I   I25       1.0  0.58123  0.18102  0.45240  1.0000
  I   I26       1.0  0.54236  0.21185  0.77026  1.0000
  I   I27       1.0  0.53137  0.21904  0.10601  1.0000
  I   I28       1.0  0.56536  0.41858  0.21395  1.0000
  I   I29       1.0  0.57153  0.41609  0.54237  1.0000
  I   I30       1.0  0.54826  0.42604  0.86912  1.0000
  I   I31       1.0  0.60458  0.61576  0.10648  1.0000
  I   I32       1.0  0.65831  0.53504  0.47369  1.0000
  I   I33       1.0  0.65373  0.54489  0.80232  1.0000
  I   I34       1.0  0.66917  0.77453  0.36680  1.0000
  I   I35       1.0  0.63937  0.79348  0.71816  1.0000
  I   I36       1.0  0.65734  0.78045  0.06504  1.0000
  I   I37       1.0  0.81353  0.12716  0.33257  1.0000
  I   I38       1.0  0.81341  0.15767  0.68180  1.0000
  I   I39       1.0  0.80116  0.12783  0.02680  1.0000
  I   I40       1.0  0.84678  0.31832  0.15652  1.0000
  I   I41       1.0  0.85880  0.30816  0.48747  1.0000
  I   I42       1.0  0.84178  0.33777  0.82296  1.0000
  I   I43       1.0  0.84668  0.58205  0.36713  1.0000
  I   I44       1.0  0.83947  0.58384  0.69465  1.0000
  I   I45       1.0  0.84593  0.57379  0.01162  1.0000
  I   I46       1.0  0.76004  0.90949  0.31684  1.0000
  I   I47       1.0  0.77315  0.89756  0.64205  1.0000
  I   I48       1.0  0.76598  0.90565  0.97454  1.0000
  I   I49       1.0  0.24384  0.16200  0.89581  1.0000
  I   I50       1.0  0.05952  0.15177  0.34713  1.0000
  I   I51       1.0  0.15708  0.16005  0.62029  1.0000
  I   I52       1.0  0.15302  0.41535  0.09256  1.0000
  I   I53       1.0  0.15615  0.42789  0.41235  1.0000
  I   I54       1.0  0.14809  0.42331  0.75670  1.0000
  I   I55       1.0  0.06566  0.70773  0.38590  1.0000
  I   I56       1.0  0.08004  0.71829  0.70076  1.0000
  I   I57       1.0  0.08695  0.71183  0.05497  1.0000
  I   I58       1.0  0.05949  0.94065  0.19655  1.0000
  I   I59       1.0  0.08415  0.95990  0.49929  1.0000
  I   I60       1.0  0.03795  0.94085  0.85084  1.0000
  I   I61       1.0  0.46552  0.09584  0.23941  1.0000
  I   I62       1.0  0.48762  0.08252  0.53775  1.0000
  I   I63       1.0  0.50094  0.11316  0.89415  1.0000
  I   I64       1.0  0.32303  0.49854  0.34567  1.0000
  I   I65       1.0  0.31464  0.49884  0.69126  1.0000
  I   I66       1.0  0.30140  0.50113  0.01861  1.0000
  I   I67       1.0  0.31472  0.69056  0.53442  1.0000
  I   I68       1.0  0.31072  0.71514  0.88419  1.0000
  I   I69       1.0  0.31155  0.70715  0.19620  1.0000
  I   I70       1.0  0.42287  0.84370  0.88677  1.0000
  I   I71       1.0  0.36998  0.84697  0.29202  1.0000
  I   I72       1.0  0.47634  0.85582  0.56624  1.0000
  I   I73       1.0  0.56681  0.25908  0.33099  1.0000
  I   I74       1.0  0.58018  0.26405  0.64509  1.0000
  I   I75       1.0  0.52919  0.27994  0.98066  1.0000
  I   I76       1.0  0.58863  0.46972  0.08198  1.0000
  I   I77       1.0  0.59363  0.46557  0.43399  1.0000
  I   I78       1.0  0.61190  0.45211  0.76276  1.0000
  I   I79       1.0  0.68142  0.61645  0.96948  1.0000
  I   I80       1.0  0.61953  0.69417  0.28049  1.0000
  I   I81       1.0  0.70718  0.57297  0.67796  1.0000
  I   I82       1.0  0.70844  0.82109  0.25003  1.0000
  I   I83       1.0  0.69737  0.81978  0.57994  1.0000
  I   I84       1.0  0.68288  0.82778  0.93642  1.0000
  I   I85       1.0  0.88218  0.11564  0.21852  1.0000
  I   I86       1.0  0.87420  0.13042  0.52706  1.0000
  I   I87       1.0  0.87746  0.13724  0.90029  1.0000
  I   I88       1.0  0.89349  0.36799  0.03581  1.0000
  I   I89       1.0  0.87063  0.36628  0.36950  1.0000
  I   I90       1.0  0.88445  0.37126  0.68247  1.0000
  I   I91       1.0  0.89965  0.61144  0.23987  1.0000
  I   I92       1.0  0.89696  0.61303  0.57198  1.0000
  I   I93       1.0  0.90309  0.58980  0.90581  1.0000
  I   I94       1.0  0.79895  0.95650  0.18635  1.0000
  I   I95       1.0  0.80197  0.95223  0.52131  1.0000
  I   I96       1.0  0.81356  0.94668  0.83592  1.0000
  I   I97       1.0  0.24032  0.14782  0.71358  1.0000
  I   I98       1.0  0.22542  0.14955  0.07994  1.0000
  I   I99       1.0  0.12537  0.16276  0.44562  1.0000
  I   I100      1.0  0.20423  0.37005  0.93185  1.0000
  I   I101      1.0  0.18739  0.38788  0.25478  1.0000
  I   I102      1.0  0.19712  0.37964  0.60411  1.0000
  I   I103      1.0  0.10211  0.66365  0.21837  1.0000
  I   I104      1.0  0.09679  0.68187  0.52762  1.0000
  I   I105      1.0  0.10857  0.69388  0.86865  1.0000
  I   I106      1.0  0.09384  0.91479  0.01265  1.0000
  I   I107      1.0  0.12679  0.91045  0.32129  1.0000
  I   I108      1.0  0.08831  0.93415  0.67956  1.0000
  I   I109      1.0  0.52342  0.08159  0.06379  1.0000
  I   I110      1.0  0.53386  0.05889  0.38247  1.0000
  I   I111      1.0  0.54163  0.05685  0.69589  1.0000
  I   I112      1.0  0.33924  0.46023  0.19773  1.0000
  I   I113      1.0  0.37178  0.44100  0.54258  1.0000
  I   I114      1.0  0.36060  0.47080  0.87064  1.0000
  I   I115      1.0  0.36372  0.65509  0.36288  1.0000
  I   I116      1.0  0.40768  0.61186  0.61205  1.0000
  I   I117      1.0  0.34262  0.69821  0.03212  1.0000
  I   I118      1.0  0.48220  0.72882  0.83917  1.0000
  I   I119      1.0  0.33715  0.92927  0.92451  1.0000
  I   I120      1.0  0.45422  0.85190  0.40397  1.0000
  I   I121      1.0  0.59757  0.24120  0.14428  1.0000
  I   I122      1.0  0.63462  0.22784  0.47542  1.0000
  I   I123      1.0  0.59653  0.25625  0.83249  1.0000
  I   I124      1.0  0.63498  0.42576  0.93637  1.0000
  I   I125      1.0  0.63598  0.43812  0.23638  1.0000
  I   I126      1.0  0.65187  0.40754  0.60365  1.0000
  I   I127      1.0  0.73300  0.55119  0.83409  1.0000
  I   I128      1.0  0.68090  0.62311  0.15878  1.0000
  I   I129      1.0  0.74328  0.53969  0.50522  1.0000
  I   I130      1.0  0.73049  0.79838  0.08367  1.0000
  I   I131      1.0  0.75282  0.77039  0.39697  1.0000
  I   I132      1.0  0.72163  0.78035  0.76109  1.0000
  I   I133      1.0  0.89624  0.07776  0.04869  1.0000
  I   I134      1.0  0.89920  0.07180  0.38673  1.0000
  I   I135      1.0  0.88060  0.08503  0.73087  1.0000
  I   I136      1.0  0.92641  0.32999  0.86962  1.0000
  I   I137      1.0  0.93097  0.31950  0.17855  1.0000
  I   I138      1.0  0.91954  0.33119  0.53204  1.0000
  I   I139      1.0  0.94051  0.54149  0.06093  1.0000
  I   I140      1.0  0.93689  0.57396  0.41218  1.0000
  I   I141      1.0  0.93884  0.53538  0.73581  1.0000
  I   I142      1.0  0.85077  0.90943  0.00409  1.0000
  I   I143      1.0  0.83421  0.92287  0.36449  1.0000
  I   I144      1.0  0.85096  0.90610  0.67855  1.0000
  I   I145      1.0  0.26855  0.06932  0.88390  1.0000
  I   I146      1.0  0.13940  0.05759  0.29160  1.0000
  I   I147      1.0  0.20127  0.07282  0.55655  1.0000
  I   I148      1.0  0.15994  0.33439  0.05541  1.0000
  I   I149      1.0  0.16527  0.34134  0.37649  1.0000
  I   I150      1.0  0.15447  0.33439  0.72241  1.0000
  I   I151      1.0  0.03524  0.64953  0.34107  1.0000
  I   I152      1.0  0.08526  0.63717  0.67250  1.0000
  I   I153      1.0  0.06376  0.64325  0.99863  1.0000
  I   I154      1.0  0.08502  0.84907  0.13896  1.0000
  I   I155      1.0  0.11762  0.86870  0.47772  1.0000
  I   I156      1.0  0.08489  0.85144  0.79701  1.0000
  I   I157      1.0  0.49418  0.01338  0.18178  1.0000
  I   I158      1.0  0.49371  0.99728  0.50982  1.0000
  I   I159      1.0  0.51555  0.03282  0.84098  1.0000
  I   I160      1.0  0.33396  0.40377  0.33616  1.0000
  I   I161      1.0  0.32801  0.40944  0.67041  1.0000
  I   I162      1.0  0.29562  0.41918  0.98882  1.0000
  I   I163      1.0  0.34438  0.60185  0.48154  1.0000
  I   I164      1.0  0.34676  0.60827  0.83851  1.0000
  I   I165      1.0  0.32883  0.60991  0.14249  1.0000
  I   I166      1.0  0.38288  0.77676  0.87838  1.0000
  I   I167      1.0  0.33140  0.82552  0.44490  1.0000
  I   I168      1.0  0.52067  0.71947  0.60727  1.0000
  I   I169      1.0  0.60123  0.17859  0.27624  1.0000
  I   I170      1.0  0.62373  0.17803  0.63062  1.0000
  I   I171      1.0  0.57114  0.18610  0.93851  1.0000
  I   I172      1.0  0.60098  0.37867  0.04974  1.0000
  I   I173      1.0  0.63228  0.37310  0.35624  1.0000
  I   I174      1.0  0.60640  0.36670  0.71333  1.0000
  I   I175      1.0  0.66209  0.54338  0.99097  1.0000
  I   I176      1.0  0.65023  0.57243  0.32995  1.0000
  I   I177      1.0  0.69467  0.49518  0.63943  1.0000
  I   I178      1.0  0.68634  0.75178  0.21020  1.0000
  I   I179      1.0  0.67201  0.75430  0.54740  1.0000
  I   I180      1.0  0.69771  0.74586  0.88388  1.0000
  I   I181      1.0  0.83124  0.07851  0.17509  1.0000
  I   I182      1.0  0.80750  0.11198  0.50874  1.0000
  I   I183      1.0  0.80606  0.11598  0.87173  1.0000
  I   I184      1.0  0.86592  0.29771  0.97817  1.0000
  I   I185      1.0  0.89189  0.27782  0.32382  1.0000
  I   I186      1.0  0.88556  0.28517  0.66586  1.0000
  I   I187      1.0  0.89959  0.51967  0.19706  1.0000
  I   I188      1.0  0.86177  0.54393  0.54365  1.0000
  I   I189      1.0  0.87193  0.52592  0.84239  1.0000
  I   I190      1.0  0.80717  0.87387  0.15424  1.0000
  I   I191      1.0  0.80284  0.86738  0.48372  1.0000
  I   I192      1.0  0.81656  0.86273  0.80953  1.0000
  I   I193      1.0  0.32178  0.10083  0.99326  1.0000
  I   I194      1.0  0.14550  0.13938  0.25985  1.0000
  I   I195      1.0  0.25544  0.12388  0.53315  1.0000
  I   I196      1.0  0.25027  0.34139  0.11051  1.0000
  I   I197      1.0  0.24614  0.36383  0.43567  1.0000
  I   I198      1.0  0.24807  0.34650  0.77423  1.0000
  I   I199      1.0  0.15189  0.60857  0.40751  1.0000
  I   I200      1.0  0.17579  0.63232  0.74347  1.0000
  I   I201      1.0  0.15813  0.60199  0.08120  1.0000
  I   I202      1.0  0.17029  0.84866  0.18352  1.0000
  I   I203      1.0  0.17748  0.90923  0.57841  1.0000
  I   I204      1.0  0.14518  0.88913  0.86533  1.0000
  I   I205      1.0  0.57373  0.02464  0.22891  1.0000
  I   I206      1.0  0.58224  0.99112  0.55637  1.0000
  I   I207      1.0  0.59440  0.03329  0.92429  1.0000
  I   I208      1.0  0.41860  0.41264  0.37640  1.0000
  I   I209      1.0  0.41671  0.41684  0.72231  1.0000
  I   I210      1.0  0.38646  0.40798  0.05137  1.0000
  I   I211      1.0  0.42235  0.67105  0.49131  1.0000
  I   I212      1.0  0.40564  0.65950  0.88571  1.0000
  I   I213      1.0  0.40100  0.63835  0.19128  1.0000
  I   I214      1.0  0.35864  0.84406  0.02366  1.0000
  I   I215      1.0  0.43599  0.77228  0.39266  1.0000
  I   I216      1.0  0.56310  0.72029  0.76185  1.0000
  I   I217      1.0  0.67442  0.21587  0.31644  1.0000
  I   I218      1.0  0.67775  0.21483  0.71005  1.0000
  I   I219      1.0  0.63506  0.25034  0.01012  1.0000
  I   I220      1.0  0.68853  0.41416  0.09311  1.0000
  I   I221      1.0  0.69620  0.38798  0.44220  1.0000
  I   I222      1.0  0.68826  0.37087  0.80285  1.0000
  I   I223      1.0  0.75477  0.54777  0.05425  1.0000
  I   I224      1.0  0.73327  0.58714  0.33963  1.0000
  I   I225      1.0  0.78185  0.48653  0.68612  1.0000
  I   I226      1.0  0.79311  0.74042  0.23001  1.0000
  I   I227      1.0  0.77125  0.72599  0.61839  1.0000
  I   I228      1.0  0.78247  0.74541  0.94116  1.0000
  I   I229      1.0  0.93104  0.00784  0.23733  1.0000
  I   I230      1.0  0.90622  0.03704  0.57012  1.0000
  I   I231      1.0  0.91873  0.03347  0.90597  1.0000
  I   I232      1.0  0.97154  0.27852  0.01780  1.0000
  I   I233      1.0  0.97093  0.30715  0.38548  1.0000
  I   I234      1.0  0.97461  0.29783  0.73126  1.0000
  I   I235      1.0  0.98671  0.51698  0.26828  1.0000
  I   I236      1.0  0.96810  0.51367  0.55852  1.0000
  I   I237      1.0  0.96985  0.48332  0.90592  1.0000
  I   I238      1.0  0.89289  0.87581  0.22327  1.0000
  I   I239      1.0  0.88774  0.87302  0.50531  1.0000
  I   I240      1.0  0.90525  0.86980  0.87601  1.0000
  I   I241      1.0  0.26904  0.05093  0.05187  1.0000
  I   I242      1.0  0.20630  0.07952  0.38000  1.0000
  I   I243      1.0  0.29898  0.05419  0.65606  1.0000
  I   I244      1.0  0.21313  0.28605  0.19603  1.0000
  I   I245      1.0  0.21366  0.29676  0.52372  1.0000
  I   I246      1.0  0.21250  0.28251  0.84782  1.0000
  I   I247      1.0  0.09165  0.58272  0.47550  1.0000
  I   I248      1.0  0.11919  0.60001  0.84672  1.0000
  I   I249      1.0  0.06928  0.60442  0.15471  1.0000
  I   I250      1.0  0.13125  0.80636  0.27801  1.0000
  I   I251      1.0  0.15996  0.83340  0.62942  1.0000
  I   I252      1.0  0.13570  0.80696  0.94899  1.0000
  I   I253      1.0  0.56002  0.95933  0.32566  1.0000
  I   I254      1.0  0.51588  0.96815  0.66881  1.0000
  I   I255      1.0  0.54936  0.97910  0.00136  1.0000
  I   I256      1.0  0.38995  0.34326  0.45295  1.0000
  I   I257      1.0  0.36160  0.38462  0.82315  1.0000
  I   I258      1.0  0.33683  0.37185  0.15357  1.0000
  I   I259      1.0  0.44965  0.58664  0.44119  1.0000
  I   I260      1.0  0.40432  0.59497  0.00461  1.0000
  I   I261      1.0  0.39575  0.57059  0.28848  1.0000
  I   I262      1.0  0.29065  0.86477  0.87670  1.0000
  I   I263      1.0  0.40504  0.82931  0.52897  1.0000
  I   I264      1.0  0.52630  0.65406  0.71583  1.0000
  I   I265      1.0  0.67525  0.12985  0.38159  1.0000
  I   I266      1.0  0.64852  0.15430  0.80204  1.0000
  I   I267      1.0  0.63621  0.15263  0.05229  1.0000
  I   I268      1.0  0.67440  0.33687  0.18014  1.0000
  I   I269      1.0  0.65444  0.32891  0.50433  1.0000
  I   I270      1.0  0.63367  0.33247  0.88540  1.0000
  I   I271      1.0  0.70147  0.52120  0.14534  1.0000
  I   I272      1.0  0.73869  0.48665  0.35585  1.0000
  I   I273      1.0  0.74067  0.44768  0.80617  1.0000
  I   I274      1.0  0.75977  0.68435  0.33649  1.0000
  I   I275      1.0  0.70953  0.69344  0.70079  1.0000
  I   I276      1.0  0.74995  0.69040  0.03985  1.0000
  I   I277      1.0  0.84897  0.02246  0.33554  1.0000
  I   I278      1.0  0.81547  0.06183  0.66585  1.0000
  I   I279      1.0  0.83577  0.02646  0.98038  1.0000
  I   I280      1.0  0.93156  0.22988  0.11552  1.0000
  I   I281      1.0  0.95353  0.23182  0.44824  1.0000
  I   I282      1.0  0.91959  0.25122  0.82078  1.0000
  I   I283      1.0  0.92967  0.49115  0.36530  1.0000
  I   I284      1.0  0.91121  0.47377  0.66372  1.0000
  I   I285      1.0  0.90554  0.47315  0.01821  1.0000
  I   I286      1.0  0.84604  0.83092  0.29768  1.0000
  I   I287      1.0  0.86677  0.81732  0.61964  1.0000
  I   I288      1.0  0.85889  0.81699  0.94749  1.0000
  I   I289      1.0  0.17482  0.12023  0.92249  1.0000
  I   I290      1.0  0.04251  0.10492  0.21363  1.0000
  I   I291      1.0  0.11084  0.09206  0.63742  1.0000
  I   I292      1.0  0.07405  0.41354  0.02351  1.0000
  I   I293      1.0  0.06787  0.42503  0.39472  1.0000
  I   I294      1.0  0.06240  0.42067  0.71903  1.0000
  I   I295      1.0  0.96876  0.74375  0.30480  1.0000
  I   I296      1.0  0.98692  0.70230  0.67382  1.0000
  I   I297      1.0  0.97278  0.73333  0.96253  1.0000
  I   I298      1.0  0.98426  0.90582  0.12299  1.0000
  I   I299      1.0  0.00416  0.95379  0.43641  1.0000
  I   I300      1.0  0.99194  0.89236  0.75229  1.0000
  I   I301      1.0  0.39464  0.08325  0.14759  1.0000
  I   I302      1.0  0.39840  0.06175  0.51077  1.0000
  I   I303      1.0  0.41639  0.11386  0.83901  1.0000
  I   I304      1.0  0.22860  0.48365  0.33334  1.0000
  I   I305      1.0  0.22855  0.49648  0.61361  1.0000
  I   I306      1.0  0.21848  0.50590  0.94651  1.0000
  I   I307      1.0  0.23627  0.68279  0.47083  1.0000
  I   I308      1.0  0.22224  0.71987  0.82722  1.0000
  I   I309      1.0  0.23165  0.68855  0.15841  1.0000
  I   I310      1.0  0.36643  0.85422  0.75200  1.0000
  I   I311      1.0  0.28934  0.95436  0.30133  1.0000
  I   I312      1.0  0.37637  0.92302  0.59588  1.0000
  I   I313      1.0  0.50045  0.21794  0.26096  1.0000
  I   I314      1.0  0.51349  0.23203  0.57215  1.0000
  I   I315      1.0  0.47889  0.23315  0.88525  1.0000
  I   I316      1.0  0.50937  0.45099  0.02556  1.0000
  I   I317      1.0  0.52920  0.42327  0.36635  1.0000
  I   I318      1.0  0.51889  0.45140  0.69637  1.0000
  I   I319      1.0  0.57898  0.63531  0.90789  1.0000
  I   I320      1.0  0.55131  0.66322  0.23451  1.0000
  I   I321      1.0  0.61047  0.59256  0.62182  1.0000
  I   I322      1.0  0.59886  0.84332  0.19850  1.0000
  I   I323      1.0  0.61424  0.84976  0.49039  1.0000
  I   I324      1.0  0.60284  0.82242  0.89515  1.0000
  I   I325      1.0  0.77929  0.18065  0.17430  1.0000
  I   I326      1.0  0.77879  0.20796  0.43864  1.0000
  I   I327      1.0  0.78918  0.21296  0.83707  1.0000
  I   I328      1.0  0.79611  0.38948  0.97391  1.0000
  I   I329      1.0  0.79045  0.35171  0.29501  1.0000
  I   I330      1.0  0.79637  0.34003  0.60976  1.0000
  I   I331      1.0  0.81862  0.61502  0.15972  1.0000
  I   I332      1.0  0.79578  0.64319  0.49528  1.0000
  I   I333      1.0  0.80737  0.63945  0.82399  1.0000
  I   I334      1.0  0.71041  0.95024  0.11719  1.0000
  I   I335      1.0  0.71416  0.93902  0.49401  1.0000
  I   I336      1.0  0.71589  0.95332  0.77858  1.0000
  I   I337      1.0  0.15668  0.19262  0.79927  1.0000
  I   I338      1.0  0.04276  0.19476  0.16037  1.0000
  I   I339      1.0  0.05942  0.17467  0.57147  1.0000
  I   I340      1.0  0.11954  0.46581  0.93908  1.0000
  I   I341      1.0  0.09618  0.47435  0.27038  1.0000
  I   I342      1.0  0.09856  0.46756  0.59338  1.0000
  I   I343      1.0  0.04953  0.75895  0.23120  1.0000
  I   I344      1.0  0.00799  0.76969  0.57805  1.0000
  I   I345      1.0  0.02842  0.77433  0.91084  1.0000
  I   I346      1.0  0.00589  0.97603  0.03872  1.0000
  I   I347      1.0  0.04380  0.99708  0.33650  1.0000
  I   I348      1.0  0.99480  0.97975  0.69329  1.0000
  I   I349      1.0  0.42633  0.15061  0.10878  1.0000
  I   I350      1.0  0.41637  0.12710  0.40820  1.0000
  I   I351      1.0  0.46618  0.16069  0.74975  1.0000
  I   I352      1.0  0.24328  0.55999  0.24146  1.0000
  I   I353      1.0  0.28334  0.51998  0.50556  1.0000
  I   I354      1.0  0.26565  0.55559  0.86659  1.0000
  I   I355      1.0  0.28099  0.73099  0.36111  1.0000
  I   I356      1.0  0.31023  0.71224  0.73138  1.0000
  I   I357      1.0  0.24243  0.75237  0.06199  1.0000
  I   I358      1.0  0.46890  0.80888  0.74544  1.0000
  I   I359      1.0  0.27682  0.87536  0.28929  1.0000
  I   I360      1.0  0.42673  0.94809  0.48740  1.0000
  I   I361      1.0  0.49814  0.30616  0.20205  1.0000
  I   I362      1.0  0.53651  0.28652  0.48399  1.0000
  I   I363      1.0  0.48555  0.31271  0.82546  1.0000
  I   I364      1.0  0.54479  0.51311  0.93636  1.0000
  I   I365      1.0  0.54295  0.50998  0.29079  1.0000
  I   I366      1.0  0.57686  0.49194  0.61642  1.0000
  I   I367      1.0  0.65156  0.63406  0.79972  1.0000
  I   I368      1.0  0.57499  0.72001  0.11669  1.0000
  I   I369      1.0  0.66140  0.61855  0.50046  1.0000
  I   I370      1.0  0.65253  0.87776  0.09788  1.0000
  I   I371      1.0  0.68539  0.86080  0.42208  1.0000
  I   I372      1.0  0.63648  0.87970  0.77843  1.0000
  I   I373      1.0  0.84967  0.18536  0.05771  1.0000
  I   I374      1.0  0.87141  0.18024  0.37353  1.0000
  I   I375      1.0  0.88540  0.17432  0.76088  1.0000
  I   I376      1.0  0.85147  0.42247  0.87078  1.0000
  I   I377      1.0  0.83668  0.41267  0.21981  1.0000
  I   I378      1.0  0.82142  0.40771  0.52757  1.0000
  I   I379      1.0  0.89006  0.63963  0.08705  1.0000
  I   I380      1.0  0.86732  0.66573  0.41367  1.0000
  I   I381      1.0  0.89056  0.63679  0.75699  1.0000
  I   I382      1.0  0.74875  0.99545  0.03608  1.0000
  I   I383      1.0  0.74063  0.99960  0.39708  1.0000
  I   I384      1.0  0.77088  0.99312  0.68794  1.0000
