data_image0
_chemical_formula_structural       Ti96I384
_chemical_formula_sum              "Ti96 I384"
_cell_length_a       60.6574
_cell_length_b       60.7621
_cell_length_c       29.472
_cell_angle_alpha    88.7757
_cell_angle_beta     88.7757
_cell_angle_gamma    62.1586

_space_group_name_H-M_alt    "P 1"
_space_group_IT_number       1

loop_
  _space_group_symop_operation_xyz
  'x, y, z'

loop_
  _atom_site_type_symbol
  _atom_site_label
  _atom_site_symmetry_multiplicity
  _atom_site_fract_x
  _atom_site_fract_y
  _atom_site_fract_z
  _atom_site_occupancy
  Ti  Ti1       1.0  0.88371  0.88334  0.48648  1.0000
  Ti  Ti2       1.0  0.57535  0.10431  0.68317  1.0000
  Ti  Ti3       1.0  0.91346  0.77556  0.93091  1.0000
  Ti  Ti4       1.0  0.38962  0.49649  0.43754  1.0000
  Ti  Ti5       1.0  0.03490  0.77923  0.24547  1.0000
  Ti  Ti6       1.0  0.48262  0.00636  0.01798  1.0000
  Ti  Ti7       1.0  0.03581  0.93617  0.04328  1.0000
  Ti  Ti8       1.0  0.13296  0.64509  0.10057  1.0000
  Ti  Ti9       1.0  0.93615  0.08467  0.51451  1.0000
  Ti  Ti10      1.0  0.86975  0.97090  0.19041  1.0000
  Ti  Ti11      1.0  0.20282  0.51135  0.86431  1.0000
  Ti  Ti12      1.0  0.20989  0.71330  0.61281  1.0000
  Ti  Ti13      1.0  0.37083  0.36455  0.46803  1.0000
  Ti  Ti14      1.0  0.26935  0.08948  0.76514  1.0000
  Ti  Ti15      1.0  0.45262  0.77031  0.04737  1.0000
  Ti  Ti16      1.0  0.90455  0.28442  0.73115  1.0000
  Ti  Ti17      1.0  0.26249  0.25022  0.63971  1.0000
  Ti  Ti18      1.0  0.73495  0.61020  0.57124  1.0000
  Ti  Ti19      1.0  0.61353  0.96235  0.20708  1.0000
  Ti  Ti20      1.0  0.39323  0.11373  0.64818  1.0000
  Ti  Ti21      1.0  0.42110  0.38217  0.09607  1.0000
  Ti  Ti22      1.0  0.50479  0.00192  0.48550  1.0000
  Ti  Ti23      1.0  0.56573  0.83048  0.92364  1.0000
  Ti  Ti24      1.0  0.39042  0.99898  0.46975  1.0000
  Ti  Ti25      1.0  0.18573  0.23405  0.11035  1.0000
  Ti  Ti26      1.0  0.90446  0.42081  0.38977  1.0000
  Ti  Ti27      1.0  0.33340  0.58450  0.68936  1.0000
  Ti  Ti28      1.0  0.71715  0.60622  0.97423  1.0000
  Ti  Ti29      1.0  0.03409  0.17088  0.27956  1.0000
  Ti  Ti30      1.0  0.90145  0.50680  0.09501  1.0000
  Ti  Ti31      1.0  0.67450  0.34769  0.41979  1.0000
  Ti  Ti32      1.0  0.71360  0.90318  0.81553  1.0000
  Ti  Ti33      1.0  0.51818  0.71837  0.30415  1.0000
  Ti  Ti34      1.0  0.78292  0.71418  0.63100  1.0000
  Ti  Ti35      1.0  0.84359  0.33208  0.06554  1.0000
  Ti  Ti36      1.0  0.02064  0.54427  0.95871  1.0000
  Ti  Ti37      1.0  0.19788  0.20141  0.51668  1.0000
  Ti  Ti38      1.0  0.55711  0.31088  0.46125  1.0000
  Ti  Ti39      1.0  0.48380  0.20170  0.01067  1.0000
  Ti  Ti40      1.0  0.87515  0.69202  0.34377  1.0000
  Ti  Ti41      1.0  0.70346  0.59087  0.32804  1.0000
  Ti  Ti42      1.0  0.05483  0.83907  0.58122  1.0000
  Ti  Ti43      1.0  0.26804  0.94563  0.02206  1.0000
  Ti  Ti44      1.0  0.78007  0.67542  0.10742  1.0000
  Ti  Ti45      1.0  0.61242  0.50711  0.76757  1.0000
  Ti  Ti46      1.0  0.06901  0.01101  0.66356  1.0000
  Ti  Ti47      1.0  0.73922  0.17083  0.99824  1.0000
  Ti  Ti48      1.0  0.37086  0.56647  0.03125  1.0000
  Ti  Ti49      1.0  0.88665  0.94199  0.54419  1.0000
  Ti  Ti50      1.0  0.68458  0.09839  0.12208  1.0000
  Ti  Ti51      1.0  0.54355  0.10153  0.80611  1.0000
  Ti  Ti52      1.0  0.43048  0.51029  0.47660  1.0000
  Ti  Ti53      1.0  0.01209  0.81423  0.11305  1.0000
  Ti  Ti54      1.0  0.41539  0.05750  0.12550  1.0000
  Ti  Ti55      1.0  0.06075  0.94974  0.12911  1.0000
  Ti  Ti56      1.0  0.15630  0.57839  0.13146  1.0000
  Ti  Ti57      1.0  0.99417  0.07568  0.41479  1.0000
  Ti  Ti58      1.0  0.24299  0.01753  0.12373  1.0000
  Ti  Ti59      1.0  0.86075  0.92401  0.20141  1.0000
  Ti  Ti60      1.0  0.21518  0.74574  0.52374  1.0000
  Ti  Ti61      1.0  0.45263  0.81449  0.97154  1.0000
  Ti  Ti62      1.0  0.35764  0.35026  0.33639  1.0000
  Ti  Ti63      1.0  0.19858  0.16931  0.86807  1.0000
  Ti  Ti64      1.0  0.74139  0.60593  0.66806  1.0000
  Ti  Ti65      1.0  0.86837  0.35166  0.71855  1.0000
  Ti  Ti66      1.0  0.71764  0.24631  0.72236  1.0000
  Ti  Ti67      1.0  0.64682  0.93567  0.08322  1.0000
  Ti  Ti68      1.0  0.41704  0.08145  0.78463  1.0000
  Ti  Ti69      1.0  0.43002  0.39657  0.97924  1.0000
  Ti  Ti70      1.0  0.45198  0.98114  0.56494  1.0000
  Ti  Ti71      1.0  0.57567  0.83471  0.05862  1.0000
  Ti  Ti72      1.0  0.79050  0.80947  0.17340  1.0000
  Ti  Ti73      1.0  0.39157  0.60377  0.76596  1.0000
  Ti  Ti74      1.0  0.12898  0.27906  0.12556  1.0000
  Ti  Ti75      1.0  0.88383  0.48388  0.36964  1.0000
  Ti  Ti76      1.0  0.86562  0.50992  0.01424  1.0000
  Ti  Ti77      1.0  0.63223  0.65551  0.95291  1.0000
  Ti  Ti78      1.0  0.05562  0.17727  0.19259  1.0000
  Ti  Ti79      1.0  0.50089  0.78917  0.35982  1.0000
  Ti  Ti80      1.0  0.68294  0.39028  0.52958  1.0000
  Ti  Ti81      1.0  0.78799  0.88420  0.77277  1.0000
  Ti  Ti82      1.0  0.75308  0.79212  0.65897  1.0000
  Ti  Ti83      1.0  0.79792  0.30373  0.04413  1.0000
  Ti  Ti84      1.0  0.98229  0.56323  0.89276  1.0000
  Ti  Ti85      1.0  0.21552  0.11931  0.55458  1.0000
  Ti  Ti86      1.0  0.61250  0.27845  0.48578  1.0000
  Ti  Ti87      1.0  0.55003  0.19908  0.95844  1.0000
  Ti  Ti88      1.0  0.91194  0.71019  0.42480  1.0000
  Ti  Ti89      1.0  0.66995  0.64508  0.24316  1.0000
  Ti  Ti90      1.0  0.01852  0.81754  0.57853  1.0000
  Ti  Ti91      1.0  0.56303  0.52230  0.69635  1.0000
  Ti  Ti92      1.0  0.96166  0.15863  0.01803  1.0000
  Ti  Ti93      1.0  0.74140  0.73859  0.09442  1.0000
  Ti  Ti94      1.0  0.38688  0.60927  0.12671  1.0000
  Ti  Ti95      1.0  0.07200  0.94854  0.70812  1.0000
  Ti  Ti96      1.0  0.74554  0.10606  0.09617  1.0000
  I   I1        1.0  0.74734  0.08276  0.17219  1.0000
  I   I2        1.0  0.59008  0.06855  0.80859  1.0000
  I   I3        1.0  0.88943  0.84011  0.52806  1.0000
  I   I4        1.0  0.00248  0.85772  0.09102  1.0000
  I   I5        1.0  0.50435  0.95906  0.03060  1.0000
  I   I6        1.0  0.38883  0.07710  0.05162  1.0000
  I   I7        1.0  0.13835  0.55957  0.07208  1.0000
  I   I8        1.0  0.14676  0.56864  0.21343  1.0000
  I   I9        1.0  0.89534  0.12597  0.52422  1.0000
  I   I10       1.0  0.90770  0.97891  0.16277  1.0000
  I   I11       1.0  0.24512  0.50876  0.84250  1.0000
  I   I12       1.0  0.99254  0.82933  0.21128  1.0000
  I   I13       1.0  0.35337  0.39261  0.38827  1.0000
  I   I14       1.0  0.26101  0.05736  0.71910  1.0000
  I   I15       1.0  0.48861  0.78399  0.05382  1.0000
  I   I16       1.0  0.90875  0.32935  0.78098  1.0000
  I   I17       1.0  0.69702  0.22061  0.68965  1.0000
  I   I18       1.0  0.77966  0.56512  0.61910  1.0000
  I   I19       1.0  0.45498  0.03867  0.80626  1.0000
  I   I20       1.0  0.20952  0.46712  0.85044  1.0000
  I   I21       1.0  0.45167  0.42811  0.96182  1.0000
  I   I22       1.0  0.57123  0.86952  0.95118  1.0000
  I   I23       1.0  0.54092  0.87790  0.08469  1.0000
  I   I24       1.0  0.46217  0.93781  0.59633  1.0000
  I   I25       1.0  0.08599  0.28722  0.15391  1.0000
  I   I26       1.0  0.87260  0.40483  0.39819  1.0000
  I   I27       1.0  0.38350  0.56521  0.76586  1.0000
  I   I28       1.0  0.60524  0.63804  0.92737  1.0000
  I   I29       1.0  0.04904  0.13915  0.16633  1.0000
  I   I30       1.0  0.86027  0.46895  0.03418  1.0000
  I   I31       1.0  0.72306  0.37752  0.57691  1.0000
  I   I32       1.0  0.81592  0.89917  0.80903  1.0000
  I   I33       1.0  0.45882  0.81785  0.32064  1.0000
  I   I34       1.0  0.87903  0.29177  0.03283  1.0000
  I   I35       1.0  0.95084  0.61066  0.88262  1.0000
  I   I36       1.0  0.82505  0.68248  0.59920  1.0000
  I   I37       1.0  0.17391  0.21643  0.44404  1.0000
  I   I38       1.0  0.52417  0.21223  0.88551  1.0000
  I   I39       1.0  0.26020  0.08557  0.54981  1.0000
  I   I40       1.0  0.69680  0.56135  0.38612  1.0000
  I   I41       1.0  0.02350  0.84675  0.50180  1.0000
  I   I42       1.0  0.95565  0.67970  0.39941  1.0000
  I   I43       1.0  0.23553  0.97027  0.10942  1.0000
  I   I44       1.0  0.74122  0.76882  0.02834  1.0000
  I   I45       1.0  0.55199  0.56792  0.68306  1.0000
  I   I46       1.0  0.10422  0.02502  0.70157  1.0000
  I   I47       1.0  0.75808  0.14549  0.09464  1.0000
  I   I48       1.0  0.32759  0.58456  0.99135  1.0000
  I   I49       1.0  0.86377  0.93813  0.61811  1.0000
  I   I50       1.0  0.60465  0.12259  0.68317  1.0000
  I   I51       1.0  0.55059  0.13264  0.61436  1.0000
  I   I52       1.0  0.39498  0.49196  0.34715  1.0000
  I   I53       1.0  0.01242  0.79863  0.32191  1.0000
  I   I54       1.0  0.39606  0.09861  0.16847  1.0000
  I   I55       1.0  0.99367  0.97399  0.08484  1.0000
  I   I56       1.0  0.11056  0.68604  0.15052  1.0000
  I   I57       1.0  0.94096  0.10506  0.43162  1.0000
  I   I58       1.0  0.84022  0.98421  0.12012  1.0000
  I   I59       1.0  0.89961  0.92426  0.14841  1.0000
  I   I60       1.0  0.20078  0.70856  0.70022  1.0000
  I   I61       1.0  0.37280  0.30734  0.30072  1.0000
  I   I62       1.0  0.39184  0.35219  0.27626  1.0000
  I   I63       1.0  0.27999  0.07525  0.84866  1.0000
  I   I64       1.0  0.89297  0.26743  0.81050  1.0000
  I   I65       1.0  0.83439  0.38816  0.76077  1.0000
  I   I66       1.0  0.76482  0.22489  0.71505  1.0000
  I   I67       1.0  0.69333  0.91115  0.11208  1.0000
  I   I68       1.0  0.38037  0.07814  0.61966  1.0000
  I   I69       1.0  0.40920  0.40755  0.17953  1.0000
  I   I70       1.0  0.45672  0.01351  0.49915  1.0000
  I   I71       1.0  0.59530  0.81811  0.85568  1.0000
  I   I72       1.0  0.78595  0.77706  0.21876  1.0000
  I   I73       1.0  0.36324  0.64715  0.78944  1.0000
  I   I74       1.0  0.83814  0.52285  0.39023  1.0000
  I   I75       1.0  0.88150  0.45994  0.45469  1.0000
  I   I76       1.0  0.75358  0.61794  0.96336  1.0000
  I   I77       1.0  0.67349  0.64908  0.01235  1.0000
  I   I78       1.0  0.05173  0.19819  0.10677  1.0000
  I   I79       1.0  0.52917  0.80844  0.32075  1.0000
  I   I80       1.0  0.64233  0.38266  0.49686  1.0000
  I   I81       1.0  0.75821  0.87682  0.84933  1.0000
  I   I82       1.0  0.73228  0.75785  0.65874  1.0000
  I   I83       1.0  0.86140  0.34707  0.12652  1.0000
  I   I84       1.0  0.98546  0.56037  0.79654  1.0000
  I   I85       1.0  0.23844  0.14845  0.51465  1.0000
  I   I86       1.0  0.59841  0.24949  0.52265  1.0000
  I   I87       1.0  0.53913  0.16021  0.99688  1.0000
  I   I88       1.0  0.83534  0.70983  0.28558  1.0000
  I   I89       1.0  0.67668  0.66234  0.16615  1.0000
  I   I90       1.0  0.06641  0.79781  0.54168  1.0000
  I   I91       1.0  0.56403  0.53566  0.79189  1.0000
  I   I92       1.0  0.97496  0.11050  0.00577  1.0000
  I   I93       1.0  0.72465  0.70877  0.05211  1.0000
  I   I94       1.0  0.39776  0.54676  0.95146  1.0000
  I   I95       1.0  0.07101  0.97226  0.62502  1.0000
  I   I96       1.0  0.79593  0.07027  0.07996  1.0000
  I   I97       1.0  0.95641  0.76006  0.89245  1.0000
  I   I98       1.0  0.92546  0.94275  0.59706  1.0000
  I   I99       1.0  0.60786  0.06179  0.66131  1.0000
  I   I100      1.0  0.44144  0.47251  0.42404  1.0000
  I   I101      1.0  0.47242  0.50069  0.52409  1.0000
  I   I102      1.0  0.07115  0.78514  0.21104  1.0000
  I   I103      1.0  0.02620  0.90166  0.00741  1.0000
  I   I104      1.0  0.04412  0.98420  0.18589  1.0000
  I   I105      1.0  0.02773  0.03553  0.45435  1.0000
  I   I106      1.0  0.25321  0.75110  0.49493  1.0000
  I   I107      1.0  0.87399  0.88012  0.23867  1.0000
  I   I108      1.0  0.23764  0.70149  0.48166  1.0000
  I   I109      1.0  0.45366  0.76699  0.95711  1.0000
  I   I110      1.0  0.38094  0.39817  0.51174  1.0000
  I   I111      1.0  0.22264  0.13208  0.81178  1.0000
  I   I112      1.0  0.71866  0.58891  0.73840  1.0000
  I   I113      1.0  0.85110  0.31923  0.71928  1.0000
  I   I114      1.0  0.30633  0.22170  0.66025  1.0000
  I   I115      1.0  0.63768  0.94315  0.28332  1.0000
  I   I116      1.0  0.63474  0.97048  0.02366  1.0000
  I   I117      1.0  0.43601  0.08597  0.69344  1.0000
  I   I118      1.0  0.50366  0.96007  0.55520  1.0000
  I   I119      1.0  0.51614  0.97584  0.41547  1.0000
  I   I120      1.0  0.82242  0.77577  0.11693  1.0000
  I   I121      1.0  0.32275  0.59105  0.60440  1.0000
  I   I122      1.0  0.15923  0.27501  0.04358  1.0000
  I   I123      1.0  0.92441  0.39936  0.31925  1.0000
  I   I124      1.0  0.89663  0.52889  0.00366  1.0000
  I   I125      1.0  0.59850  0.67837  0.02073  1.0000
  I   I126      1.0  0.10364  0.15601  0.20483  1.0000
  I   I127      1.0  0.51827  0.68219  0.35987  1.0000
  I   I128      1.0  0.69446  0.34630  0.33867  1.0000
  I   I129      1.0  0.80968  0.83726  0.75553  1.0000
  I   I130      1.0  0.03253  0.51892  0.03949  1.0000
  I   I131      1.0  0.77086  0.68116  0.67463  1.0000
  I   I132      1.0  0.76059  0.31653  0.10379  1.0000
  I   I133      1.0  0.48816  0.17232  0.08145  1.0000
  I   I134      1.0  0.55631  0.32606  0.54224  1.0000
  I   I135      1.0  0.59044  0.27522  0.39420  1.0000
  I   I136      1.0  0.08271  0.81927  0.65995  1.0000
  I   I137      1.0  0.85998  0.72487  0.41760  1.0000
  I   I138      1.0  0.67602  0.62874  0.38198  1.0000
  I   I139      1.0  0.62406  0.52660  0.69853  1.0000
  I   I140      1.0  0.93394  0.16976  0.09242  1.0000
  I   I141      1.0  0.78838  0.71951  0.10700  1.0000
  I   I142      1.0  0.38842  0.65551  0.13273  1.0000
  I   I143      1.0  0.02591  0.96571  0.69430  1.0000
  I   I144      1.0  0.69377  0.20725  0.00046  1.0000
  I   I145      1.0  0.91259  0.88908  0.54706  1.0000
  I   I146      1.0  0.55386  0.11392  0.88511  1.0000
  I   I147      1.0  0.88835  0.75724  0.88837  1.0000
  I   I148      1.0  0.43499  0.53423  0.40328  1.0000
  I   I149      1.0  0.97002  0.82323  0.07785  1.0000
  I   I150      1.0  0.46741  0.00746  0.93608  1.0000
  I   I151      1.0  0.10602  0.92819  0.16793  1.0000
  I   I152      1.0  0.17238  0.62116  0.16553  1.0000
  I   I153      1.0  0.93871  0.06536  0.59470  1.0000
  I   I154      1.0  0.29637  0.91229  0.08781  1.0000
  I   I155      1.0  0.16706  0.51637  0.92296  1.0000
  I   I156      1.0  0.21599  0.66919  0.60153  1.0000
  I   I157      1.0  0.49764  0.78983  0.92376  1.0000
  I   I158      1.0  0.16372  0.18210  0.92499  1.0000
  I   I159      1.0  0.42580  0.84593  0.90908  1.0000
  I   I160      1.0  0.76525  0.62603  0.61823  1.0000
  I   I161      1.0  0.25496  0.27447  0.56453  1.0000
  I   I162      1.0  0.75976  0.58864  0.49822  1.0000
  I   I163      1.0  0.64980  0.89899  0.02727  1.0000
  I   I164      1.0  0.42807  0.11386  0.81223  1.0000
  I   I165      1.0  0.45842  0.36858  0.91061  1.0000
  I   I166      1.0  0.45540  0.00126  0.63714  1.0000
  I   I167      1.0  0.52382  0.84984  0.88190  1.0000
  I   I168      1.0  0.39479  0.00604  0.38097  1.0000
  I   I169      1.0  0.22858  0.23895  0.09797  1.0000
  I   I170      1.0  0.20700  0.21025  0.18855  1.0000
  I   I171      1.0  0.33470  0.54305  0.72296  1.0000
  I   I172      1.0  0.88700  0.47933  0.94201  1.0000
  I   I173      1.0  0.04383  0.21019  0.25718  1.0000
  I   I174      1.0  0.90611  0.54642  0.11286  1.0000
  I   I175      1.0  0.69893  0.30259  0.44017  1.0000
  I   I176      1.0  0.78731  0.89470  0.68519  1.0000
  I   I177      1.0  0.49119  0.81270  0.43753  1.0000
  I   I178      1.0  0.78875  0.74216  0.69696  1.0000
  I   I179      1.0  0.81319  0.32684  0.12433  1.0000
  I   I180      1.0  0.96811  0.57856  0.98017  1.0000
  I   I181      1.0  0.23066  0.22220  0.52212  1.0000
  I   I182      1.0  0.65621  0.24284  0.45592  1.0000
  I   I183      1.0  0.44106  0.24291  0.99481  1.0000
  I   I184      1.0  0.89803  0.72460  0.32359  1.0000
  I   I185      1.0  0.75112  0.57180  0.34429  1.0000
  I   I186      1.0  0.03206  0.79520  0.65750  1.0000
  I   I187      1.0  0.00328  0.16137  0.02193  1.0000
  I   I188      1.0  0.75565  0.69645  0.18425  1.0000
  I   I189      1.0  0.64680  0.45932  0.75059  1.0000
  I   I190      1.0  0.06650  0.03006  0.58116  1.0000
  I   I191      1.0  0.69598  0.14227  0.10461  1.0000
  I   I192      1.0  0.38207  0.56678  0.12938  1.0000
  I   I193      1.0  0.86405  0.93419  0.47493  1.0000
  I   I194      1.0  0.67155  0.06518  0.13541  1.0000
  I   I195      1.0  0.91240  0.76112  0.01230  1.0000
  I   I196      1.0  0.37997  0.45726  0.44014  1.0000
  I   I197      1.0  0.19711  0.04186  0.16178  1.0000
  I   I198      1.0  0.45905  0.05316  0.07997  1.0000
  I   I199      1.0  0.04007  0.92166  0.14887  1.0000
  I   I200      1.0  0.19702  0.53860  0.12577  1.0000
  I   I201      1.0  0.92148  0.05877  0.47133  1.0000
  I   I202      1.0  0.81690  0.94180  0.16565  1.0000
  I   I203      1.0  0.39420  0.42845  0.05593  1.0000
  I   I204      1.0  0.19292  0.76284  0.60736  1.0000
  I   I205      1.0  0.31225  0.37602  0.31493  1.0000
  I   I206      1.0  0.23518  0.16918  0.90526  1.0000
  I   I207      1.0  0.41372  0.82566  0.03832  1.0000
  I   I208      1.0  0.90940  0.25448  0.66491  1.0000
  I   I209      1.0  0.25771  0.29105  0.68035  1.0000
  I   I210      1.0  0.70289  0.64958  0.52282  1.0000
  I   I211      1.0  0.61801  0.92564  0.14342  1.0000
  I   I212      1.0  0.39058  0.12740  0.56463  1.0000
  I   I213      1.0  0.43896  0.34281  0.13829  1.0000
  I   I214      1.0  0.54595  0.00263  0.50382  1.0000
  I   I215      1.0  0.60879  0.80465  0.99809  1.0000
  I   I216      1.0  0.38039  0.96126  0.46510  1.0000
  I   I217      1.0  0.20105  0.20534  0.03783  1.0000
  I   I218      1.0  0.93271  0.44841  0.36420  1.0000
  I   I219      1.0  0.35923  0.61198  0.67975  1.0000
  I   I220      1.0  0.68191  0.62736  0.90250  1.0000
  I   I221      1.0  0.99916  0.20064  0.20582  1.0000
  I   I222      1.0  0.89887  0.49797  0.18589  1.0000
  I   I223      1.0  0.71464  0.35988  0.46452  1.0000
  I   I224      1.0  0.68267  0.93290  0.88256  1.0000
  I   I225      1.0  0.48873  0.75284  0.24611  1.0000
  I   I226      1.0  0.72793  0.80923  0.73839  1.0000
  I   I227      1.0  0.85559  0.35350  0.99024  1.0000
  I   I228      1.0  0.02296  0.51567  0.88723  1.0000
  I   I229      1.0  0.19356  0.10716  0.62778  1.0000
  I   I230      1.0  0.52443  0.35088  0.42864  1.0000
  I   I231      1.0  0.56659  0.22867  0.98315  1.0000
  I   I232      1.0  0.91092  0.65075  0.30660  1.0000
  I   I233      1.0  0.71958  0.61642  0.26007  1.0000
  I   I234      1.0  0.01184  0.78074  0.54364  1.0000
  I   I235      1.0  0.23615  0.93244  0.00293  1.0000
  I   I236      1.0  0.82334  0.64949  0.14444  1.0000
  I   I237      1.0  0.64179  0.51010  0.82826  1.0000
  I   I238      1.0  0.02689  0.05084  0.68901  1.0000
  I   I239      1.0  0.74532  0.11930  0.99921  1.0000
  I   I240      1.0  0.37883  0.61880  0.21417  1.0000
  I   I241      1.0  0.84185  0.89615  0.43960  1.0000
  I   I242      1.0  0.53642  0.14146  0.75069  1.0000
  I   I243      1.0  0.88750  0.82620  0.91577  1.0000
  I   I244      1.0  0.35640  0.54683  0.44353  1.0000
  I   I245      1.0  0.07026  0.73325  0.25891  1.0000
  I   I246      1.0  0.52506  0.00480  0.98519  1.0000
  I   I247      1.0  0.08446  0.90972  0.05631  1.0000
  I   I248      1.0  0.10809  0.67027  0.02229  1.0000
  I   I249      1.0  0.98295  0.08095  0.52105  1.0000
  I   I250      1.0  0.89252  0.94423  0.27035  1.0000
  I   I251      1.0  0.18555  0.53090  0.78569  1.0000
  I   I252      1.0  0.18260  0.78136  0.46659  1.0000
  I   I253      1.0  0.36489  0.34134  0.53810  1.0000
  I   I254      1.0  0.32059  0.07936  0.74535  1.0000
  I   I255      1.0  0.46494  0.84811  0.99907  1.0000
  I   I256      1.0  0.84722  0.36341  0.63664  1.0000
  I   I257      1.0  0.22431  0.24061  0.65655  1.0000
  I   I258      1.0  0.76397  0.61074  0.73903  1.0000
  I   I259      1.0  0.59784  0.00765  0.24133  1.0000
  I   I260      1.0  0.39578  0.06908  0.85195  1.0000
  I   I261      1.0  0.41114  0.35876  0.01771  1.0000
  I   I262      1.0  0.48796  0.04592  0.44466  1.0000
  I   I263      1.0  0.53863  0.82930  0.00370  1.0000
  I   I264      1.0  0.34148  0.03137  0.46179  1.0000
  I   I265      1.0  0.14375  0.22603  0.13557  1.0000
  I   I266      1.0  0.87310  0.46205  0.30630  1.0000
  I   I267      1.0  0.29567  0.61223  0.74641  1.0000
  I   I268      1.0  0.74199  0.56082  0.93807  1.0000
  I   I269      1.0  0.08154  0.13804  0.29519  1.0000
  I   I270      1.0  0.83155  0.53552  0.95072  1.0000
  I   I271      1.0  0.66841  0.43641  0.48796  1.0000
  I   I272      1.0  0.71941  0.89625  0.72522  1.0000
  I   I273      1.0  0.54243  0.74165  0.32488  1.0000
  I   I274      1.0  0.78471  0.80846  0.63564  1.0000
  I   I275      1.0  0.76704  0.30137  0.98799  1.0000
  I   I276      1.0  0.07113  0.51852  0.95054  1.0000
  I   I277      1.0  0.16192  0.23811  0.55949  1.0000
  I   I278      1.0  0.59914  0.32773  0.46056  1.0000
  I   I279      1.0  0.50940  0.22314  0.04602  1.0000
  I   I280      1.0  0.91553  0.69171  0.50581  1.0000
  I   I281      1.0  0.66867  0.60077  0.25621  1.0000
  I   I282      1.0  0.07990  0.86186  0.55563  1.0000
  I   I283      1.0  0.29790  0.93637  0.95192  1.0000
  I   I284      1.0  0.77348  0.63598  0.11199  1.0000
  I   I285      1.0  0.59166  0.47187  0.74437  1.0000
  I   I286      1.0  0.07754  0.98512  0.74149  1.0000
  I   I287      1.0  0.72314  0.07867  0.05318  1.0000
  I   I288      1.0  0.36450  0.52710  0.04487  1.0000
  I   I289      1.0  0.91511  0.85976  0.42495  1.0000
  I   I290      1.0  0.64095  0.12877  0.07980  1.0000
  I   I291      1.0  0.54904  0.07744  0.71390  1.0000
  I   I292      1.0  0.40204  0.49134  0.52594  1.0000
  I   I293      1.0  0.04918  0.79276  0.05516  1.0000
  I   I294      1.0  0.44092  0.00982  0.06079  1.0000
  I   I295      1.0  0.03078  0.97137  0.98494  1.0000
  I   I296      1.0  0.10670  0.62402  0.11209  1.0000
  I   I297      1.0  0.01248  0.10540  0.39632  1.0000
  I   I298      1.0  0.25380  0.05611  0.13716  1.0000
  I   I299      1.0  0.84049  0.01982  0.21724  1.0000
  I   I300      1.0  0.17413  0.72891  0.54218  1.0000
  I   I301      1.0  0.41008  0.77342  0.08389  1.0000
  I   I302      1.0  0.34516  0.34404  0.42435  1.0000
  I   I303      1.0  0.26803  0.12120  0.70323  1.0000
  I   I304      1.0  0.69282  0.63954  0.65609  1.0000
  I   I305      1.0  0.94773  0.25270  0.74611  1.0000
  I   I306      1.0  0.70114  0.26499  0.80375  1.0000
  I   I307      1.0  0.57704  0.95608  0.24294  1.0000
  I   I308      1.0  0.37514  0.16054  0.66419  1.0000
  I   I309      1.0  0.46060  0.37954  0.05613  1.0000
  I   I310      1.0  0.39627  0.99389  0.57067  1.0000
  I   I311      1.0  0.60425  0.84308  0.12445  1.0000
  I   I312      1.0  0.74340  0.83933  0.15550  1.0000
  I   I313      1.0  0.42033  0.61249  0.71499  1.0000
  I   I314      1.0  0.16525  0.27260  0.18408  1.0000
  I   I315      1.0  0.93339  0.39221  0.45645  1.0000
  I   I316      1.0  0.94749  0.47114  0.07439  1.0000
  I   I317      1.0  0.73122  0.58457  0.06572  1.0000
  I   I318      1.0  0.01266  0.19073  0.36060  1.0000
  I   I319      1.0  0.54922  0.68386  0.25129  1.0000
  I   I320      1.0  0.63236  0.36335  0.38419  1.0000
  I   I321      1.0  0.69827  0.87079  0.82718  1.0000
  I   I322      1.0  0.76887  0.73821  0.55659  1.0000
  I   I323      1.0  0.79639  0.34563  0.00705  1.0000
  I   I324      1.0  0.95169  0.54578  0.89647  1.0000
  I   I325      1.0  0.19809  0.09571  0.50433  1.0000
  I   I326      1.0  0.63876  0.28746  0.54046  1.0000
  I   I327      1.0  0.59236  0.16285  0.93235  1.0000
  I   I328      1.0  0.91663  0.74820  0.44824  1.0000
  I   I329      1.0  0.62045  0.67479  0.23330  1.0000
  I   I330      1.0  0.01130  0.86419  0.62577  1.0000
  I   I331      1.0  0.52019  0.52531  0.71708  1.0000
  I   I332      1.0  0.26958  0.99182  0.04178  1.0000
  I   I333      1.0  0.72423  0.76721  0.16681  1.0000
  I   I334      1.0  0.43404  0.58434  0.11421  1.0000
  I   I335      1.0  0.09549  0.90750  0.64640  1.0000
  I   I336      1.0  0.76265  0.19561  0.02033  1.0000
  I   I337      1.0  0.88694  0.97952  0.49351  1.0000
  I   I338      1.0  0.68098  0.12186  0.20193  1.0000
  I   I339      1.0  0.52047  0.07831  0.84292  1.0000
  I   I340      1.0  0.39747  0.54860  0.53541  1.0000
  I   I341      1.0  0.02694  0.76798  0.16300  1.0000
  I   I342      1.0  0.39124  0.03399  0.15677  1.0000
  I   I343      1.0  0.06886  0.98254  0.07469  1.0000
  I   I344      1.0  0.16523  0.60826  0.05231  1.0000
  I   I345      1.0  0.98925  0.06107  0.33880  1.0000
  I   I346      1.0  0.27639  0.99379  0.18741  1.0000
  I   I347      1.0  0.83836  0.93910  0.28474  1.0000
  I   I348      1.0  0.25478  0.71220  0.59914  1.0000
  I   I349      1.0  0.47368  0.72060  0.06428  1.0000
  I   I350      1.0  0.41828  0.33145  0.45113  1.0000
  I   I351      1.0  0.17938  0.20987  0.82111  1.0000
  I   I352      1.0  0.70912  0.58699  0.58939  1.0000
  I   I353      1.0  0.91378  0.31711  0.67134  1.0000
  I   I354      1.0  0.70282  0.28221  0.66381  1.0000
  I   I355      1.0  0.64927  0.96981  0.15118  1.0000
  I   I356      1.0  0.37656  0.09848  0.73850  1.0000
  I   I357      1.0  0.38584  0.41948  0.93548  1.0000
  I   I358      1.0  0.44219  0.96197  0.47373  1.0000
  I   I359      1.0  0.57848  0.79616  0.10651  1.0000
  I   I360      1.0  0.81264  0.82117  0.23558  1.0000
  I   I361      1.0  0.42017  0.59032  0.84032  1.0000
  I   I362      1.0  0.12130  0.32303  0.10976  1.0000
  I   I363      1.0  0.90175  0.51584  0.32506  1.0000
  I   I364      1.0  0.84650  0.52747  0.10397  1.0000
  I   I365      1.0  0.63519  0.68920  0.90125  1.0000
  I   I366      1.0  0.00776  0.14807  0.28392  1.0000
  I   I367      1.0  0.49025  0.75366  0.40063  1.0000
  I   I368      1.0  0.65696  0.40570  0.60069  1.0000
  I   I369      1.0  0.73934  0.93078  0.79941  1.0000
  I   I370      1.0  0.72154  0.82285  0.60092  1.0000
  I   I371      1.0  0.82744  0.25936  0.07105  1.0000
  I   I372      1.0  0.02743  0.58803  0.92962  1.0000
  I   I373      1.0  0.17610  0.16243  0.52924  1.0000
  I   I374      1.0  0.53740  0.28203  0.45364  1.0000
  I   I375      1.0  0.47685  0.17893  0.94726  1.0000
  I   I376      1.0  0.87280  0.65177  0.37862  1.0000
  I   I377      1.0  0.67050  0.68385  0.28469  1.0000
  I   I378      1.0  0.96903  0.83752  0.60998  1.0000
  I   I379      1.0  0.58394  0.49581  0.62324  1.0000
  I   I380      1.0  0.92550  0.18073  0.95916  1.0000
  I   I381      1.0  0.78608  0.67916  0.01398  1.0000
  I   I382      1.0  0.36462  0.61233  0.04640  1.0000
  I   I383      1.0  0.08311  0.91874  0.78051  1.0000
  I   I384      1.0  0.76178  0.16123  0.91201  1.0000
