data_image0
_chemical_formula_structural       Ti96I384
_chemical_formula_sum              "Ti96 I384"
_cell_length_a       80.3855
_cell_length_b       79.836
_cell_length_c       39.1035
_cell_angle_alpha    88.7757
_cell_angle_beta     88.7757
_cell_angle_gamma    62.1586

_space_group_name_H-M_alt    "P 1"
_space_group_IT_number       1

loop_
  _space_group_symop_operation_xyz
  'x, y, z'

loop_
  _atom_site_type_symbol
  _atom_site_label
  _atom_site_symmetry_multiplicity
  _atom_site_fract_x
  _atom_site_fract_y
  _atom_site_fract_z
  _atom_site_occupancy
  Ti  Ti1       1.0  0.70045  0.58015  0.31944  1.0000
  Ti  Ti2       1.0  0.66203  0.00561  0.62360  1.0000
  Ti  Ti3       1.0  0.95996  0.98121  0.17855  1.0000
  Ti  Ti4       1.0  0.46875  0.82751  0.93379  1.0000
  Ti  Ti5       1.0  0.94969  0.58218  0.63107  1.0000
  Ti  Ti6       1.0  0.12230  0.88909  0.53853  1.0000
  Ti  Ti7       1.0  0.29841  0.30169  0.94819  1.0000
  Ti  Ti8       1.0  0.52273  0.44714  0.99609  1.0000
  Ti  Ti9       1.0  0.04194  0.15811  0.72000  1.0000
  Ti  Ti10      1.0  0.86961  0.34875  0.12341  1.0000
  Ti  Ti11      1.0  0.27186  0.78801  0.65208  1.0000
  Ti  Ti12      1.0  0.39010  0.95812  0.36215  1.0000
  Ti  Ti13      1.0  0.54245  0.56987  0.34686  1.0000
  Ti  Ti14      1.0  0.43526  0.79697  0.94774  1.0000
  Ti  Ti15      1.0  0.70764  0.24235  0.64240  1.0000
  Ti  Ti16      1.0  0.83859  0.57054  0.92861  1.0000
  Ti  Ti17      1.0  0.48432  0.05387  0.49307  1.0000
  Ti  Ti18      1.0  0.57061  0.33960  0.50833  1.0000
  Ti  Ti19      1.0  0.82975  0.19718  0.07728  1.0000
  Ti  Ti20      1.0  0.67243  0.72262  0.51409  1.0000
  Ti  Ti21      1.0  0.47258  0.47890  0.69858  1.0000
  Ti  Ti22      1.0  0.42965  0.24511  0.98469  1.0000
  Ti  Ti23      1.0  0.38498  0.22613  0.75788  1.0000
  Ti  Ti24      1.0  0.80636  0.47800  0.44390  1.0000
  Ti  Ti25      1.0  0.92215  0.04930  0.98980  1.0000
  Ti  Ti26      1.0  0.24646  0.73315  0.34429  1.0000
  Ti  Ti27      1.0  0.89165  0.81240  0.55750  1.0000
  Ti  Ti28      1.0  0.32070  0.17442  0.03944  1.0000
  Ti  Ti29      1.0  0.04780  0.56696  0.55771  1.0000
  Ti  Ti30      1.0  0.34439  0.65156  0.69258  1.0000
  Ti  Ti31      1.0  0.91282  0.87484  0.34215  1.0000
  Ti  Ti32      1.0  0.13951  0.22823  0.78442  1.0000
  Ti  Ti33      1.0  0.78460  0.30351  0.29962  1.0000
  Ti  Ti34      1.0  0.67092  0.64848  0.80790  1.0000
  Ti  Ti35      1.0  0.44377  0.05335  0.95989  1.0000
  Ti  Ti36      1.0  0.12385  0.89489  0.97051  1.0000
  Ti  Ti37      1.0  0.32541  0.91864  0.09176  1.0000
  Ti  Ti38      1.0  0.51122  0.60804  0.65026  1.0000
  Ti  Ti39      1.0  0.90889  0.32825  0.03524  1.0000
  Ti  Ti40      1.0  0.52108  0.11114  0.14102  1.0000
  Ti  Ti41      1.0  0.19659  0.02634  0.53510  1.0000
  Ti  Ti42      1.0  0.41662  0.34097  0.89637  1.0000
  Ti  Ti43      1.0  0.38143  0.60301  0.09158  1.0000
  Ti  Ti44      1.0  0.41792  0.43719  0.23959  1.0000
  Ti  Ti45      1.0  0.83525  0.09228  0.32449  1.0000
  Ti  Ti46      1.0  0.63614  0.87066  0.37720  1.0000
  Ti  Ti47      1.0  0.21947  0.54522  0.57956  1.0000
  Ti  Ti48      1.0  0.49910  0.91516  0.13391  1.0000
  Ti  Ti49      1.0  0.55357  0.02821  0.21820  1.0000
  Ti  Ti50      1.0  0.12942  0.25751  0.45676  1.0000
  Ti  Ti51      1.0  0.56314  0.01581  0.75501  1.0000
  Ti  Ti52      1.0  0.95493  0.53010  0.37172  1.0000
  Ti  Ti53      1.0  0.63598  0.31602  0.93877  1.0000
  Ti  Ti54      1.0  0.77329  0.99834  0.70836  1.0000
  Ti  Ti55      1.0  0.97342  0.71847  0.13989  1.0000
  Ti  Ti56      1.0  0.76062  0.00862  0.91613  1.0000
  Ti  Ti57      1.0  0.03759  0.14861  0.66191  1.0000
  Ti  Ti58      1.0  0.99915  0.87818  0.24605  1.0000
  Ti  Ti59      1.0  0.83934  0.50940  0.93557  1.0000
  Ti  Ti60      1.0  0.81212  0.17044  0.09412  1.0000
  Ti  Ti61      1.0  0.59314  0.14731  0.32654  1.0000
  Ti  Ti62      1.0  0.56612  0.52810  0.36186  1.0000
  Ti  Ti63      1.0  0.16314  0.72821  0.66517  1.0000
  Ti  Ti64      1.0  0.56675  0.32775  0.44093  1.0000
  Ti  Ti65      1.0  0.19439  0.15584  0.57485  1.0000
  Ti  Ti66      1.0  0.19241  0.99701  0.77734  1.0000
  Ti  Ti67      1.0  0.62920  0.78296  0.71838  1.0000
  Ti  Ti68      1.0  0.06722  0.70530  0.22378  1.0000
  Ti  Ti69      1.0  0.23713  0.76641  0.29518  1.0000
  Ti  Ti70      1.0  0.11136  0.84224  0.29495  1.0000
  Ti  Ti71      1.0  0.81909  0.46730  0.07119  1.0000
  Ti  Ti72      1.0  0.27040  0.34375  0.69580  1.0000
  Ti  Ti73      1.0  0.37173  0.65157  0.53989  1.0000
  Ti  Ti74      1.0  0.92129  0.02502  0.90712  1.0000
  Ti  Ti75      1.0  0.52415  0.99704  0.23516  1.0000
  Ti  Ti76      1.0  0.59457  0.69823  0.45606  1.0000
  Ti  Ti77      1.0  0.68748  0.24048  0.54303  1.0000
  Ti  Ti78      1.0  0.01686  0.58589  0.47491  1.0000
  Ti  Ti79      1.0  0.84112  0.03730  0.55282  1.0000
  Ti  Ti80      1.0  0.21667  0.38809  0.03389  1.0000
  Ti  Ti81      1.0  0.52362  0.26988  0.78770  1.0000
  Ti  Ti82      1.0  0.47177  0.66872  0.07998  1.0000
  Ti  Ti83      1.0  0.86886  0.12120  0.33332  1.0000
  Ti  Ti84      1.0  0.14485  0.85499  0.90277  1.0000
  Ti  Ti85      1.0  0.30663  0.95085  0.14223  1.0000
  Ti  Ti86      1.0  0.29839  0.35292  0.92415  1.0000
  Ti  Ti87      1.0  0.74590  0.77821  0.72031  1.0000
  Ti  Ti88      1.0  0.75442  0.22007  0.91852  1.0000
  Ti  Ti89      1.0  0.88944  0.11928  0.81359  1.0000
  Ti  Ti90      1.0  0.51098  0.99640  0.48216  1.0000
  Ti  Ti91      1.0  0.50110  0.38045  0.27257  1.0000
  Ti  Ti92      1.0  0.69349  0.45748  0.10318  1.0000
  Ti  Ti93      1.0  0.40652  0.88510  0.74196  1.0000
  Ti  Ti94      1.0  0.50737  0.91209  0.05192  1.0000
  Ti  Ti95      1.0  0.29236  0.82597  0.96349  1.0000
  Ti  Ti96      1.0  0.06704  0.14709  0.97000  1.0000
  I   I1        1.0  0.23734  0.50854  0.58776  1.0000
  I   I2        1.0  0.58459  0.03311  0.76664  1.0000
  I   I3        1.0  0.52388  0.02659  0.26299  1.0000
  I   I4        1.0  0.61514  0.35221  0.93305  1.0000
  I   I5        1.0  0.09919  0.92026  0.56594  1.0000
  I   I6        1.0  0.74674  0.03080  0.73308  1.0000
  I   I7        1.0  0.54219  0.40657  0.01162  1.0000
  I   I8        1.0  0.77449  0.98668  0.86556  1.0000
  I   I9        1.0  0.05319  0.12359  0.74265  1.0000
  I   I10       1.0  0.52988  0.12454  0.08889  1.0000
  I   I11       1.0  0.28006  0.76004  0.59926  1.0000
  I   I12       1.0  0.91867  0.58776  0.66169  1.0000
  I   I13       1.0  0.57793  0.55645  0.31762  1.0000
  I   I14       1.0  0.17617  0.71787  0.72052  1.0000
  I   I15       1.0  0.72954  0.20823  0.65903  1.0000
  I   I16       1.0  0.48592  0.11970  0.13740  1.0000
  I   I17       1.0  0.21184  0.99964  0.72328  1.0000
  I   I18       1.0  0.57437  0.34094  0.38933  1.0000
  I   I19       1.0  0.15522  0.76366  0.65842  1.0000
  I   I20       1.0  0.23780  0.78850  0.65946  1.0000
  I   I21       1.0  0.51779  0.46843  0.94653  1.0000
  I   I22       1.0  0.51815  0.30635  0.79903  1.0000
  I   I23       1.0  0.78047  0.23298  0.92409  1.0000
  I   I24       1.0  0.12447  0.80777  0.27774  1.0000
  I   I25       1.0  0.95015  0.03290  0.03805  1.0000
  I   I26       1.0  0.54077  0.01590  0.16887  1.0000
  I   I27       1.0  0.45450  0.07844  0.97093  1.0000
  I   I28       1.0  0.34589  0.18026  0.06204  1.0000
  I   I29       1.0  0.00655  0.56528  0.42608  1.0000
  I   I30       1.0  0.37352  0.62155  0.72056  1.0000
  I   I31       1.0  0.22616  0.35565  0.06833  1.0000
  I   I32       1.0  0.54272  0.25020  0.73040  1.0000
  I   I33       1.0  0.85331  0.05333  0.50264  1.0000
  I   I34       1.0  0.45999  0.03017  0.91166  1.0000
  I   I35       1.0  0.17325  0.85497  0.86171  1.0000
  I   I36       1.0  0.70017  0.64974  0.82213  1.0000
  I   I37       1.0  0.32354  0.88729  0.07112  1.0000
  I   I38       1.0  0.84966  0.38589  0.13864  1.0000
  I   I39       1.0  0.27019  0.97357  0.14760  1.0000
  I   I40       1.0  0.39798  0.46135  0.19255  1.0000
  I   I41       1.0  0.16517  0.23280  0.44320  1.0000
  I   I42       1.0  0.52229  0.13397  0.18690  1.0000
  I   I43       1.0  0.03054  0.85666  0.27685  1.0000
  I   I44       1.0  0.80116  0.11863  0.30584  1.0000
  I   I45       1.0  0.88912  0.10527  0.28037  1.0000
  I   I46       1.0  0.25683  0.84696  0.99425  1.0000
  I   I47       1.0  0.23188  0.54991  0.51932  1.0000
  I   I48       1.0  0.47598  0.93893  0.07956  1.0000
  I   I49       1.0  0.56354  0.98921  0.23868  1.0000
  I   I50       1.0  0.65897  0.03770  0.59804  1.0000
  I   I51       1.0  0.56435  0.01408  0.68925  1.0000
  I   I52       1.0  0.18152  0.41542  0.01461  1.0000
  I   I53       1.0  0.64318  0.30505  0.87956  1.0000
  I   I54       1.0  0.80041  0.98238  0.75019  1.0000
  I   I55       1.0  0.33124  0.31470  0.93757  1.0000
  I   I56       1.0  0.45002  0.46616  0.72105  1.0000
  I   I57       1.0  0.30928  0.82242  0.01925  1.0000
  I   I58       1.0  0.85531  0.32710  0.17120  1.0000
  I   I59       1.0  0.82010  0.55119  0.94847  1.0000
  I   I60       1.0  0.79606  0.14719  0.12258  1.0000
  I   I61       1.0  0.54498  0.51540  0.34839  1.0000
  I   I62       1.0  0.52927  0.55936  0.29555  1.0000
  I   I63       1.0  0.68425  0.70983  0.45348  1.0000
  I   I64       1.0  0.85421  0.50211  0.99302  1.0000
  I   I65       1.0  0.54052  0.07368  0.13794  1.0000
  I   I66       1.0  0.28602  0.19922  0.02056  1.0000
  I   I67       1.0  0.82738  0.22177  0.12570  1.0000
  I   I68       1.0  0.70788  0.70111  0.53688  1.0000
  I   I69       1.0  0.22582  0.71904  0.31268  1.0000
  I   I70       1.0  0.10955  0.87071  0.25232  1.0000
  I   I71       1.0  0.40861  0.20158  0.79793  1.0000
  I   I72       1.0  0.26233  0.34007  0.63163  1.0000
  I   I73       1.0  0.85971  0.84821  0.55721  1.0000
  I   I74       1.0  0.26746  0.72697  0.28825  1.0000
  I   I75       1.0  0.23715  0.79886  0.28465  1.0000
  I   I76       1.0  0.71441  0.24560  0.56349  1.0000
  I   I77       1.0  0.65545  0.24174  0.53981  1.0000
  I   I78       1.0  0.90547  0.90462  0.30221  1.0000
  I   I79       1.0  0.79210  0.27524  0.25660  1.0000
  I   I80       1.0  0.71481  0.57699  0.25729  1.0000
  I   I81       1.0  0.11670  0.21282  0.79042  1.0000
  I   I82       1.0  0.49763  0.64898  0.03018  1.0000
  I   I83       1.0  0.82193  0.09464  0.38669  1.0000
  I   I84       1.0  0.16547  0.86670  0.94583  1.0000
  I   I85       1.0  0.30482  0.91833  0.15069  1.0000
  I   I86       1.0  0.32143  0.14552  0.07724  1.0000
  I   I87       1.0  0.91111  0.35087  0.99005  1.0000
  I   I88       1.0  0.87517  0.36441  0.06308  1.0000
  I   I89       1.0  0.66631  0.62714  0.75829  1.0000
  I   I90       1.0  0.12432  0.25696  0.39170  1.0000
  I   I91       1.0  0.53322  0.35456  0.28889  1.0000
  I   I92       1.0  0.66484  0.48397  0.07007  1.0000
  I   I93       1.0  0.45326  0.41258  0.21589  1.0000
  I   I94       1.0  0.52200  0.87785  0.11044  1.0000
  I   I95       1.0  0.64953  0.89297  0.35070  1.0000
  I   I96       1.0  0.39620  0.25534  0.97131  1.0000
  I   I97       1.0  0.93786  0.01271  0.20821  1.0000
  I   I98       1.0  0.72235  0.58922  0.35106  1.0000
  I   I99       1.0  0.69481  0.98940  0.65175  1.0000
  I   I100      1.0  0.44510  0.77460  0.99980  1.0000
  I   I101      1.0  0.72617  0.24862  0.88514  1.0000
  I   I102      1.0  0.97304  0.55490  0.67982  1.0000
  I   I103      1.0  0.31912  0.36923  0.92467  1.0000
  I   I104      1.0  0.97299  0.74881  0.16393  1.0000
  I   I105      1.0  0.21594  0.04481  0.50483  1.0000
  I   I106      1.0  0.42258  0.93489  0.38698  1.0000
  I   I107      1.0  0.94400  0.31904  0.05839  1.0000
  I   I108      1.0  0.40051  0.94531  0.29792  1.0000
  I   I109      1.0  0.69057  0.25716  0.69854  1.0000
  I   I110      1.0  0.57284  0.51020  0.42483  1.0000
  I   I111      1.0  0.67830  0.75391  0.51839  1.0000
  I   I112      1.0  0.57575  0.36867  0.48046  1.0000
  I   I113      1.0  0.17834  0.19411  0.56779  1.0000
  I   I114      1.0  0.49267  0.07898  0.46642  1.0000
  I   I115      1.0  0.62523  0.76538  0.76893  1.0000
  I   I116      1.0  0.64459  0.80422  0.73732  1.0000
  I   I117      1.0  0.07145  0.73193  0.18409  1.0000
  I   I118      1.0  0.10356  0.14062  0.98530  1.0000
  I   I119      1.0  0.64177  0.75645  0.67288  1.0000
  I   I120      1.0  0.24354  0.55549  0.60852  1.0000
  I   I121      1.0  0.33966  0.65435  0.51941  1.0000
  I   I122      1.0  0.90430  0.08256  0.02151  1.0000
  I   I123      1.0  0.52016  0.98519  0.29404  1.0000
  I   I124      1.0  0.32343  0.63915  0.66430  1.0000
  I   I125      1.0  0.59842  0.68597  0.51431  1.0000
  I   I126      1.0  0.98066  0.61041  0.48117  1.0000
  I   I127      1.0  0.77868  0.32779  0.25213  1.0000
  I   I128      1.0  0.43884  0.82678  0.98114  1.0000
  I   I129      1.0  0.36296  0.25593  0.78653  1.0000
  I   I130      1.0  0.08821  0.89805  0.95623  1.0000
  I   I131      1.0  0.45626  0.64750  0.05421  1.0000
  I   I132      1.0  0.42026  0.04916  0.00791  1.0000
  I   I133      1.0  0.90009  0.31315  0.09406  1.0000
  I   I134      1.0  0.53676  0.62177  0.66402  1.0000
  I   I135      1.0  0.21500  0.99258  0.83006  1.0000
  I   I136      1.0  0.45701  0.31769  0.88572  1.0000
  I   I137      1.0  0.92528  0.56434  0.37912  1.0000
  I   I138      1.0  0.89639  0.11620  0.74864  1.0000
  I   I139      1.0  0.47705  0.37382  0.30984  1.0000
  I   I140      1.0  0.72172  0.44259  0.06221  1.0000
  I   I141      1.0  0.43673  0.85691  0.70856  1.0000
  I   I142      1.0  0.51185  0.92594  0.99427  1.0000
  I   I143      1.0  0.97099  0.95583  0.23670  1.0000
  I   I144      1.0  0.43971  0.25248  0.91955  1.0000
  I   I145      1.0  0.66920  0.60081  0.35563  1.0000
  I   I146      1.0  0.66919  0.98248  0.57165  1.0000
  I   I147      1.0  0.95073  0.99272  0.11458  1.0000
  I   I148      1.0  0.98419  0.53646  0.36887  1.0000
  I   I149      1.0  0.95233  0.61235  0.64061  1.0000
  I   I150      1.0  0.15266  0.88095  0.57080  1.0000
  I   I151      1.0  0.95129  0.71286  0.18613  1.0000
  I   I152      1.0  0.48869  0.46905  0.02723  1.0000
  I   I153      1.0  0.07254  0.14157  0.67652  1.0000
  I   I154      1.0  0.35630  0.63648  0.07919  1.0000
  I   I155      1.0  0.26537  0.81177  0.71274  1.0000
  I   I156      1.0  0.83246  0.14579  0.04824  1.0000
  I   I157      1.0  0.67938  0.26729  0.50011  1.0000
  I   I158      1.0  0.13427  0.72514  0.64050  1.0000
  I   I159      1.0  0.57865  0.15668  0.26256  1.0000
  I   I160      1.0  0.57277  0.29294  0.42132  1.0000
  I   I161      1.0  0.54478  0.97899  0.45880  1.0000
  I   I162      1.0  0.54847  0.35846  0.55718  1.0000
  I   I163      1.0  0.86731  0.17970  0.07828  1.0000
  I   I164      1.0  0.65159  0.84174  0.33749  1.0000
  I   I165      1.0  0.50585  0.45608  0.67480  1.0000
  I   I166      1.0  0.05061  0.18140  0.95310  1.0000
  I   I167      1.0  0.53216  0.25399  0.84867  1.0000
  I   I168      1.0  0.80369  0.45348  0.48367  1.0000
  I   I169      1.0  0.92416  0.00577  0.85264  1.0000
  I   I170      1.0  0.90011  0.06661  0.92152  1.0000
  I   I171      1.0  0.87666  0.80419  0.61664  1.0000
  I   I172      1.0  0.60117  0.66964  0.41232  1.0000
  I   I173      1.0  0.04138  0.54774  0.50524  1.0000
  I   I174      1.0  0.31698  0.67820  0.72946  1.0000
  I   I175      1.0  0.93700  0.84778  0.30893  1.0000
  I   I176      1.0  0.12246  0.25807  0.81880  1.0000
  I   I177      1.0  0.84718  0.04872  0.61417  1.0000
  I   I178      1.0  0.44643  0.69949  0.04841  1.0000
  I   I179      1.0  0.83716  0.06388  0.29219  1.0000
  I   I180      1.0  0.11867  0.88963  0.89991  1.0000
  I   I181      1.0  0.36931  0.95513  0.40896  1.0000
  I   I182      1.0  0.30783  0.27866  0.99651  1.0000
  I   I183      1.0  0.75522  0.76471  0.78126  1.0000
  I   I184      1.0  0.76344  0.19121  0.87948  1.0000
  I   I185      1.0  0.87320  0.10059  0.82736  1.0000
  I   I186      1.0  0.41453  0.36784  0.85858  1.0000
  I   I187      1.0  0.68805  0.42967  0.10826  1.0000
  I   I188      1.0  0.41646  0.46865  0.26574  1.0000
  I   I189      1.0  0.76339  0.79870  0.71656  1.0000
  I   I190      1.0  0.60540  0.88154  0.40448  1.0000
  I   I191      1.0  0.49820  0.02597  0.44064  1.0000
  I   I192      1.0  0.95702  0.95143  0.16430  1.0000
  I   I193      1.0  0.03405  0.59773  0.51676  1.0000
  I   I194      1.0  0.64195  0.73527  0.54731  1.0000
  I   I195      1.0  0.98912  0.98410  0.20237  1.0000
  I   I196      1.0  0.46315  0.85694  0.90454  1.0000
  I   I197      1.0  0.96603  0.87662  0.27062  1.0000
  I   I198      1.0  0.12036  0.85948  0.51173  1.0000
  I   I199      1.0  0.16672  0.21035  0.82683  1.0000
  I   I200      1.0  0.72290  0.04038  0.89850  1.0000
  I   I201      1.0  0.02194  0.15315  0.59589  1.0000
  I   I202      1.0  0.87223  0.55264  0.95717  1.0000
  I   I203      1.0  0.27442  0.70058  0.36218  1.0000
  I   I204      1.0  0.37463  0.99801  0.36661  1.0000
  I   I205      1.0  0.59516  0.50211  0.33662  1.0000
  I   I206      1.0  0.44051  0.77228  0.89401  1.0000
  I   I207      1.0  0.72952  0.25967  0.65795  1.0000
  I   I208      1.0  0.85228  0.52687  0.89141  1.0000
  I   I209      1.0  0.52539  0.97507  0.53959  1.0000
  I   I210      1.0  0.86695  0.99910  0.55441  1.0000
  I   I211      1.0  0.11189  0.84777  0.35948  1.0000
  I   I212      1.0  0.19009  0.71170  0.61985  1.0000
  I   I213      1.0  0.22807  0.75709  0.23913  1.0000
  I   I214      1.0  0.44471  0.21742  0.03109  1.0000
  I   I215      1.0  0.35316  0.22416  0.73893  1.0000
  I   I216      1.0  0.38425  0.91104  0.70386  1.0000
  I   I217      1.0  0.89547  0.04461  0.02425  1.0000
  I   I218      1.0  0.52620  0.96951  0.18783  1.0000
  I   I219      1.0  0.38714  0.63970  0.47859  1.0000
  I   I220      1.0  0.70771  0.20415  0.52884  1.0000
  I   I221      1.0  0.05977  0.58666  0.60317  1.0000
  I   I222      1.0  0.55969  0.72061  0.46897  1.0000
  I   I223      1.0  0.90675  0.88231  0.41275  1.0000
  I   I224      1.0  0.16077  0.24242  0.74469  1.0000
  I   I225      1.0  0.75310  0.30468  0.31733  1.0000
  I   I226      1.0  0.50113  0.67474  0.08792  1.0000
  I   I227      1.0  0.41560  0.07827  0.92339  1.0000
  I   I228      1.0  0.12480  0.85309  0.96637  1.0000
  I   I229      1.0  0.01073  0.90350  0.23183  1.0000
  I   I230      1.0  0.50297  0.59466  0.70146  1.0000
  I   I231      1.0  0.90269  0.33564  0.15492  1.0000
  I   I232      1.0  0.39911  0.81988  0.95194  1.0000
  I   I233      1.0  0.20467  0.01051  0.47327  1.0000
  I   I234      1.0  0.46095  0.08052  0.53492  1.0000
  I   I235      1.0  0.40363  0.59612  0.14757  1.0000
  I   I236      1.0  0.40451  0.89244  0.81312  1.0000
  I   I237      1.0  0.49075  0.36576  0.22153  1.0000
  I   I238      1.0  0.31726  0.79736  0.92819  1.0000
  I   I239      1.0  0.06297  0.13661  0.03390  1.0000
  I   I240      1.0  0.47104  0.90892  0.15489  1.0000
  I   I241      1.0  0.70162  0.54814  0.32663  1.0000
  I   I242      1.0  0.63618  0.02638  0.66464  1.0000
  I   I243      1.0  0.08687  0.70331  0.27363  1.0000
  I   I244      1.0  0.75186  0.20562  0.97983  1.0000
  I   I245      1.0  0.67578  0.29151  0.93077  1.0000
  I   I246      1.0  0.13667  0.89634  0.48413  1.0000
  I   I247      1.0  0.27682  0.29405  0.91126  1.0000
  I   I248      1.0  0.45185  0.51544  0.67286  1.0000
  I   I249      1.0  0.05049  0.17998  0.75816  1.0000
  I   I250      1.0  0.80691  0.51325  0.95079  1.0000
  I   I251      1.0  0.28971  0.80552  0.63386  1.0000
  I   I252      1.0  0.83460  0.17259  0.13817  1.0000
  I   I253      1.0  0.54045  0.60336  0.32536  1.0000
  I   I254      1.0  0.48278  0.82723  0.99725  1.0000
  I   I255      1.0  0.62582  0.14218  0.31947  1.0000
  I   I256      1.0  0.18182  0.14718  0.63071  1.0000
  I   I257      1.0  0.34842  0.91664  0.03536  1.0000
  I   I258      1.0  0.60310  0.31958  0.45424  1.0000
  I   I259      1.0  0.59527  0.81329  0.70386  1.0000
  I   I260      1.0  0.65446  0.85578  0.43142  1.0000
  I   I261      1.0  0.47416  0.49475  0.75564  1.0000
  I   I262      1.0  0.43217  0.27765  0.99348  1.0000
  I   I263      1.0  0.78256  0.47954  0.06869  1.0000
  I   I264      1.0  0.12164  0.92964  0.99367  1.0000
  I   I265      1.0  0.94125  0.00403  0.96120  1.0000
  I   I266      1.0  0.22982  0.73117  0.40216  1.0000
  I   I267      1.0  0.37684  0.63315  0.60159  1.0000
  I   I268      1.0  0.15971  0.02859  0.78933  1.0000
  I   I269      1.0  0.02689  0.59048  0.40836  1.0000
  I   I270      1.0  0.32575  0.15840  0.97881  1.0000
  I   I271      1.0  0.88164  0.87411  0.33693  1.0000
  I   I272      1.0  0.48790  0.27794  0.77730  1.0000
  I   I273      1.0  0.81578  0.29511  0.33535  1.0000
  I   I274      1.0  0.16275  0.04737  0.56857  1.0000
  I   I275      1.0  0.91064  0.79693  0.49961  1.0000
  I   I276      1.0  0.13566  0.83167  0.87529  1.0000
  I   I277      1.0  0.47262  0.65951  0.14809  1.0000
  I   I278      1.0  0.48458  0.64065  0.66838  1.0000
  I   I279      1.0  0.39201  0.43885  0.28572  1.0000
  I   I280      1.0  0.95829  0.49993  0.40076  1.0000
  I   I281      1.0  0.21523  0.99586  0.58290  1.0000
  I   I282      1.0  0.42298  0.35076  0.95783  1.0000
  I   I283      1.0  0.35722  0.59046  0.11135  1.0000
  I   I284      1.0  0.79893  0.50807  0.48986  1.0000
  I   I285      1.0  0.76856  0.74403  0.69671  1.0000
  I   I286      1.0  0.29564  0.85532  0.93811  1.0000
  I   I287      1.0  0.26647  0.32120  0.74193  1.0000
  I   I288      1.0  0.52860  0.91924  0.09686  1.0000
  I   I289      1.0  0.39887  0.58942  0.03333  1.0000
  I   I290      1.0  0.50148  0.97242  0.44446  1.0000
  I   I291      1.0  0.53693  0.01156  0.77930  1.0000
  I   I292      1.0  0.95098  0.52623  0.31009  1.0000
  I   I293      1.0  0.62156  0.30309  0.98743  1.0000
  I   I294      1.0  0.78502  0.01659  0.66056  1.0000
  I   I295      1.0  0.28419  0.33229  0.88466  1.0000
  I   I296      1.0  0.75007  0.98799  0.95156  1.0000
  I   I297      1.0  0.04834  0.11233  0.65172  1.0000
  I   I298      1.0  0.98916  0.87528  0.18268  1.0000
  I   I299      1.0  0.85584  0.47740  0.89928  1.0000
  I   I300      1.0  0.39043  0.86298  0.74609  1.0000
  I   I301      1.0  0.58635  0.11949  0.35398  1.0000
  I   I302      1.0  0.51726  0.57099  0.38662  1.0000
  I   I303      1.0  0.23200  0.14356  0.57583  1.0000
  I   I304      1.0  0.53269  0.35819  0.46008  1.0000
  I   I305      1.0  0.85108  0.57882  0.86925  1.0000
  I   I306      1.0  0.32429  0.27504  0.90797  1.0000
  I   I307      1.0  0.34797  0.93468  0.13294  1.0000
  I   I308      1.0  0.11130  0.24641  0.49769  1.0000
  I   I309      1.0  0.55179  0.45311  0.01449  1.0000
  I   I310      1.0  0.53816  0.06246  0.23423  1.0000
  I   I311      1.0  0.82528  0.46816  0.00434  1.0000
  I   I312      1.0  0.18570  0.56997  0.59999  1.0000
  I   I313      1.0  0.36750  0.68464  0.55516  1.0000
  I   I314      1.0  0.94163  0.04345  0.91862  1.0000
  I   I315      1.0  0.48929  0.01708  0.21495  1.0000
  I   I316      1.0  0.62391  0.69904  0.44386  1.0000
  I   I317      1.0  0.17851  0.97347  0.76169  1.0000
  I   I318      1.0  0.01970  0.56479  0.58931  1.0000
  I   I319      1.0  0.81485  0.04286  0.50529  1.0000
  I   I320      1.0  0.49961  0.80625  0.90678  1.0000
  I   I321      1.0  0.99496  0.68239  0.14369  1.0000
  I   I322      1.0  0.65402  0.64554  0.86489  1.0000
  I   I323      1.0  0.83565  0.12631  0.30345  1.0000
  I   I324      1.0  0.12430  0.89007  0.03727  1.0000
  I   I325      1.0  0.30349  0.95322  0.06683  1.0000
  I   I326      1.0  0.26995  0.38529  0.89763  1.0000
  I   I327      1.0  0.85883  0.15651  0.33766  1.0000
  I   I328      1.0  0.92090  0.29928  0.99758  1.0000
  I   I329      1.0  0.86912  0.15493  0.82427  1.0000
  I   I330      1.0  0.51531  0.02331  0.51847  1.0000
  I   I331      1.0  0.71059  0.79609  0.71353  1.0000
  I   I332      1.0  0.45900  0.03862  0.51431  1.0000
  I   I333      1.0  0.65524  0.67796  0.77391  1.0000
  I   I334      1.0  0.49489  0.89176  0.02054  1.0000
  I   I335      1.0  0.03519  0.71174  0.24882  1.0000
  I   I336      1.0  0.05721  0.12441  0.93956  1.0000
  I   I337      1.0  0.58779  0.02218  0.19984  1.0000
  I   I338      1.0  0.13830  0.28211  0.48873  1.0000
  I   I339      1.0  0.58613  0.98164  0.78362  1.0000
  I   I340      1.0  0.22125  0.40994  0.07679  1.0000
  I   I341      1.0  0.96675  0.56103  0.58044  1.0000
  I   I342      1.0  0.75407  0.98405  0.68529  1.0000
  I   I343      1.0  0.96829  0.71510  0.07231  1.0000
  I   I344      1.0  0.77212  0.03516  0.92113  1.0000
  I   I345      1.0  0.02722  0.18509  0.65987  1.0000
  I   I346      1.0  0.07929  0.84630  0.29316  1.0000
  I   I347      1.0  0.81110  0.60510  0.93896  1.0000
  I   I348      1.0  0.82241  0.20571  0.00604  1.0000
  I   I349      1.0  0.59165  0.15755  0.39076  1.0000
  I   I350      1.0  0.56810  0.55809  0.40377  1.0000
  I   I351      1.0  0.44991  0.81157  0.89909  1.0000
  I   I352      1.0  0.57562  0.30227  0.50273  1.0000
  I   I353      1.0  0.19099  0.13643  0.52363  1.0000
  I   I354      1.0  0.28631  0.34136  0.97743  1.0000
  I   I355      1.0  0.79339  0.19751  0.04224  1.0000
  I   I356      1.0  0.08857  0.67488  0.18979  1.0000
  I   I357      1.0  0.25254  0.76404  0.35940  1.0000
  I   I358      1.0  0.83856  0.46709  0.40717  1.0000
  I   I359      1.0  0.82810  0.43206  0.08643  1.0000
  I   I360      1.0  0.29187  0.35983  0.67333  1.0000
  I   I361      1.0  0.90618  0.83140  0.58146  1.0000
  I   I362      1.0  0.88704  0.02994  0.92664  1.0000
  I   I363      1.0  0.20606  0.77995  0.32979  1.0000
  I   I364      1.0  0.35340  0.67960  0.67385  1.0000
  I   I365      1.0  0.66839  0.25993  0.61199  1.0000
  I   I366      1.0  0.07908  0.53325  0.58007  1.0000
  I   I367      1.0  0.81378  0.02626  0.56779  1.0000
  I   I368      1.0  0.23411  0.37454  0.97721  1.0000
  I   I369      1.0  0.39034  0.24177  0.69758  1.0000
  I   I370      1.0  0.00540  0.16681  0.72274  1.0000
  I   I371      1.0  0.86100  0.12630  0.40604  1.0000
  I   I372      1.0  0.78571  0.47978  0.39399  1.0000
  I   I373      1.0  0.31164  0.98147  0.16179  1.0000
  I   I374      1.0  0.52939  0.58425  0.58898  1.0000
  I   I375      1.0  0.86895  0.08492  0.36083  1.0000
  I   I376      1.0  0.84634  0.47706  0.09282  1.0000
  I   I377      1.0  0.91077  0.11025  0.87156  1.0000
  I   I378      1.0  0.41342  0.30994  0.87737  1.0000
  I   I379      1.0  0.49501  0.41339  0.29668  1.0000
  I   I380      1.0  0.69032  0.47442  0.16141  1.0000
  I   I381      1.0  0.77773  0.19202  0.13076  1.0000
  I   I382      1.0  0.51078  0.92184  0.19168  1.0000
  I   I383      1.0  0.29970  0.76298  0.68955  1.0000
  I   I384      1.0  0.24143  0.37708  0.70641  1.0000
