data_image0
_chemical_formula_structural       Ti96I384
_chemical_formula_sum              "Ti96 I384"
_cell_length_a       61.1304
_cell_length_b       61.1093
_cell_length_c       29.6737
_cell_angle_alpha    88.7757
_cell_angle_beta     88.7757
_cell_angle_gamma    62.1586

_space_group_name_H-M_alt    "P 1"
_space_group_IT_number       1

loop_
  _space_group_symop_operation_xyz
  'x, y, z'

loop_
  _atom_site_type_symbol
  _atom_site_label
  _atom_site_symmetry_multiplicity
  _atom_site_fract_x
  _atom_site_fract_y
  _atom_site_fract_z
  _atom_site_occupancy
  Ti  Ti1       1.0  0.72738  0.01031  0.54025  1.0000
  Ti  Ti2       1.0  0.49450  0.13748  0.52934  1.0000
  Ti  Ti3       1.0  0.95933  0.71900  0.90549  1.0000
  Ti  Ti4       1.0  0.43625  0.50241  0.40767  1.0000
  Ti  Ti5       1.0  0.14365  0.75776  0.21560  1.0000
  Ti  Ti6       1.0  0.46001  0.00928  0.03433  1.0000
  Ti  Ti7       1.0  0.03356  0.98920  0.14155  1.0000
  Ti  Ti8       1.0  0.10072  0.59025  0.16334  1.0000
  Ti  Ti9       1.0  0.00578  0.00589  0.56405  1.0000
  Ti  Ti10      1.0  0.90272  0.90430  0.01701  1.0000
  Ti  Ti11      1.0  0.34825  0.38017  0.81203  1.0000
  Ti  Ti12      1.0  0.19735  0.71074  0.62298  1.0000
  Ti  Ti13      1.0  0.35788  0.38758  0.51322  1.0000
  Ti  Ti14      1.0  0.22857  0.08346  0.65792  1.0000
  Ti  Ti15      1.0  0.51394  0.74494  0.97546  1.0000
  Ti  Ti16      1.0  0.87371  0.38333  0.67556  1.0000
  Ti  Ti17      1.0  0.25127  0.23072  0.50417  1.0000
  Ti  Ti18      1.0  0.70886  0.59798  0.58781  1.0000
  Ti  Ti19      1.0  0.71498  0.92001  0.19476  1.0000
  Ti  Ti20      1.0  0.39022  0.12107  0.77613  1.0000
  Ti  Ti21      1.0  0.52652  0.34323  0.14890  1.0000
  Ti  Ti22      1.0  0.51429  0.96742  0.48497  1.0000
  Ti  Ti23      1.0  0.60788  0.84199  0.02772  1.0000
  Ti  Ti24      1.0  0.39370  0.93852  0.51924  1.0000
  Ti  Ti25      1.0  0.12312  0.32416  0.07807  1.0000
  Ti  Ti26      1.0  0.88007  0.36489  0.38041  1.0000
  Ti  Ti27      1.0  0.37398  0.55761  0.79866  1.0000
  Ti  Ti28      1.0  0.72263  0.57193  0.93994  1.0000
  Ti  Ti29      1.0  0.01303  0.17774  0.17826  1.0000
  Ti  Ti30      1.0  0.87691  0.53504  0.12189  1.0000
  Ti  Ti31      1.0  0.69922  0.37060  0.46475  1.0000
  Ti  Ti32      1.0  0.68762  0.94135  0.81449  1.0000
  Ti  Ti33      1.0  0.46006  0.72946  0.24963  1.0000
  Ti  Ti34      1.0  0.68364  0.74730  0.61203  1.0000
  Ti  Ti35      1.0  0.81818  0.36861  0.14709  1.0000
  Ti  Ti36      1.0  0.05127  0.50759  0.91128  1.0000
  Ti  Ti37      1.0  0.11692  0.19445  0.33014  1.0000
  Ti  Ti38      1.0  0.55339  0.27528  0.58119  1.0000
  Ti  Ti39      1.0  0.44245  0.24033  0.02846  1.0000
  Ti  Ti40      1.0  0.83950  0.78119  0.37203  1.0000
  Ti  Ti41      1.0  0.68105  0.60081  0.30163  1.0000
  Ti  Ti42      1.0  0.94451  0.86347  0.63108  1.0000
  Ti  Ti43      1.0  0.26915  0.06755  0.96601  1.0000
  Ti  Ti44      1.0  0.80276  0.65902  0.15394  1.0000
  Ti  Ti45      1.0  0.55344  0.55425  0.73126  1.0000
  Ti  Ti46      1.0  0.18727  0.01195  0.92496  1.0000
  Ti  Ti47      1.0  0.83393  0.13399  0.05512  1.0000
  Ti  Ti48      1.0  0.36932  0.56060  0.12646  1.0000
  Ti  Ti49      1.0  0.79810  0.01387  0.54781  1.0000
  Ti  Ti50      1.0  0.72379  0.16593  0.07836  1.0000
  Ti  Ti51      1.0  0.54594  0.11235  0.53589  1.0000
  Ti  Ti52      1.0  0.38075  0.57251  0.48140  1.0000
  Ti  Ti53      1.0  0.09508  0.79618  0.13191  1.0000
  Ti  Ti54      1.0  0.42867  0.07068  0.03891  1.0000
  Ti  Ti55      1.0  0.07566  0.94668  0.09880  1.0000
  Ti  Ti56      1.0  0.13990  0.59681  0.04684  1.0000
  Ti  Ti57      1.0  0.04674  0.02469  0.59202  1.0000
  Ti  Ti58      1.0  0.30053  0.01645  0.05380  1.0000
  Ti  Ti59      1.0  0.93345  0.90903  0.15027  1.0000
  Ti  Ti60      1.0  0.26184  0.70700  0.55917  1.0000
  Ti  Ti61      1.0  0.47459  0.78743  0.92634  1.0000
  Ti  Ti62      1.0  0.34697  0.40513  0.36339  1.0000
  Ti  Ti63      1.0  0.18530  0.06916  0.71375  1.0000
  Ti  Ti64      1.0  0.69712  0.57355  0.69956  1.0000
  Ti  Ti65      1.0  0.93293  0.34745  0.64418  1.0000
  Ti  Ti66      1.0  0.66698  0.19952  0.63785  1.0000
  Ti  Ti67      1.0  0.67343  0.98077  0.11193  1.0000
  Ti  Ti68      1.0  0.41891  0.05534  0.74020  1.0000
  Ti  Ti69      1.0  0.51562  0.38495  0.04951  1.0000
  Ti  Ti70      1.0  0.47042  0.93159  0.48145  1.0000
  Ti  Ti71      1.0  0.61489  0.85197  0.14833  1.0000
  Ti  Ti72      1.0  0.84360  0.80171  0.15240  1.0000
  Ti  Ti73      1.0  0.34710  0.61570  0.77864  1.0000
  Ti  Ti74      1.0  0.16384  0.25728  0.04739  1.0000
  Ti  Ti75      1.0  0.83324  0.41464  0.38822  1.0000
  Ti  Ti76      1.0  0.89936  0.48850  0.05995  1.0000
  Ti  Ti77      1.0  0.67719  0.62104  0.96511  1.0000
  Ti  Ti78      1.0  0.07211  0.11889  0.14586  1.0000
  Ti  Ti79      1.0  0.45041  0.76124  0.34809  1.0000
  Ti  Ti80      1.0  0.65131  0.38805  0.50288  1.0000
  Ti  Ti81      1.0  0.73957  0.91820  0.88246  1.0000
  Ti  Ti82      1.0  0.73711  0.76156  0.67286  1.0000
  Ti  Ti83      1.0  0.82367  0.31891  0.01741  1.0000
  Ti  Ti84      1.0  0.03339  0.57142  0.95202  1.0000
  Ti  Ti85      1.0  0.16770  0.13055  0.32047  1.0000
  Ti  Ti86      1.0  0.58856  0.20727  0.64720  1.0000
  Ti  Ti87      1.0  0.52394  0.21429  0.00780  1.0000
  Ti  Ti88      1.0  0.83088  0.74052  0.41644  1.0000
  Ti  Ti89      1.0  0.62195  0.65687  0.38565  1.0000
  Ti  Ti90      1.0  0.94382  0.81332  0.62250  1.0000
  Ti  Ti91      1.0  0.50006  0.57949  0.73588  1.0000
  Ti  Ti92      1.0  0.96733  0.17309  0.93626  1.0000
  Ti  Ti93      1.0  0.72659  0.71955  0.16636  1.0000
  Ti  Ti94      1.0  0.38273  0.61083  0.15169  1.0000
  Ti  Ti95      1.0  0.13073  0.99557  0.89169  1.0000
  Ti  Ti96      1.0  0.79015  0.10170  0.10228  1.0000
  I   I1        1.0  0.78658  0.08967  0.19106  1.0000
  I   I2        1.0  0.57679  0.13137  0.56148  1.0000
  I   I3        1.0  0.70734  0.99097  0.59014  1.0000
  I   I4        1.0  0.08152  0.83529  0.07734  1.0000
  I   I5        1.0  0.50323  0.99742  0.99876  1.0000
  I   I6        1.0  0.38405  0.11057  0.02885  1.0000
  I   I7        1.0  0.13187  0.61246  0.96069  1.0000
  I   I8        1.0  0.15032  0.54959  0.03130  1.0000
  I   I9        1.0  0.01291  0.98095  0.49362  1.0000
  I   I10       1.0  0.86432  0.94902  0.01683  1.0000
  I   I11       1.0  0.31219  0.40138  0.87081  1.0000
  I   I12       1.0  0.16600  0.70721  0.21867  1.0000
  I   I13       1.0  0.33983  0.42884  0.44701  1.0000
  I   I14       1.0  0.22386  0.03138  0.66748  1.0000
  I   I15       1.0  0.47315  0.73719  0.95233  1.0000
  I   I16       1.0  0.97808  0.34208  0.65508  1.0000
  I   I17       1.0  0.69196  0.17606  0.71221  1.0000
  I   I18       1.0  0.73549  0.58443  0.68012  1.0000
  I   I19       1.0  0.46474  0.01562  0.73379  1.0000
  I   I20       1.0  0.38725  0.38848  0.82030  1.0000
  I   I21       1.0  0.54322  0.38754  0.98616  1.0000
  I   I22       1.0  0.56689  0.84404  0.99381  1.0000
  I   I23       1.0  0.63652  0.86589  0.20764  1.0000
  I   I24       1.0  0.49969  0.88262  0.46786  1.0000
  I   I25       1.0  0.16681  0.23072  0.97921  1.0000
  I   I26       1.0  0.86353  0.37758  0.46775  1.0000
  I   I27       1.0  0.38100  0.58242  0.86900  1.0000
  I   I28       1.0  0.64140  0.61836  0.92206  1.0000
  I   I29       1.0  0.05653  0.09061  0.10787  1.0000
  I   I30       1.0  0.92857  0.49805  0.11100  1.0000
  I   I31       1.0  0.61674  0.37523  0.53150  1.0000
  I   I32       1.0  0.76521  0.90224  0.80504  1.0000
  I   I33       1.0  0.40297  0.79023  0.36301  1.0000
  I   I34       1.0  0.82014  0.41162  0.14933  1.0000
  I   I35       1.0  0.07464  0.55973  0.98861  1.0000
  I   I36       1.0  0.65083  0.73401  0.64200  1.0000
  I   I37       1.0  0.08577  0.21204  0.26527  1.0000
  I   I38       1.0  0.54393  0.20614  0.92759  1.0000
  I   I39       1.0  0.20290  0.09409  0.27119  1.0000
  I   I40       1.0  0.65221  0.58859  0.25881  1.0000
  I   I41       1.0  0.91096  0.84456  0.56611  1.0000
  I   I42       1.0  0.82445  0.74054  0.50767  1.0000
  I   I43       1.0  0.34687  0.98787  0.03656  1.0000
  I   I44       1.0  0.73506  0.75540  0.14470  1.0000
  I   I45       1.0  0.52584  0.59866  0.79178  1.0000
  I   I46       1.0  0.22110  0.00033  0.86636  1.0000
  I   I47       1.0  0.82980  0.10685  0.12751  1.0000
  I   I48       1.0  0.33045  0.56020  0.08895  1.0000
  I   I49       1.0  0.83846  0.98103  0.50908  1.0000
  I   I50       1.0  0.46163  0.18560  0.49822  1.0000
  I   I51       1.0  0.46121  0.12514  0.55661  1.0000
  I   I52       1.0  0.46634  0.50964  0.34093  1.0000
  I   I53       1.0  0.17987  0.76335  0.17820  1.0000
  I   I54       1.0  0.42218  0.10061  0.11098  1.0000
  I   I55       1.0  0.04691  0.00939  0.20734  1.0000
  I   I56       1.0  0.11603  0.56514  0.24409  1.0000
  I   I57       1.0  0.01935  0.06242  0.53750  1.0000
  I   I58       1.0  0.91459  0.91179  0.93188  1.0000
  I   I59       1.0  0.88667  0.90250  0.11991  1.0000
  I   I60       1.0  0.18725  0.68323  0.67687  1.0000
  I   I61       1.0  0.37118  0.37296  0.30150  1.0000
  I   I62       1.0  0.30010  0.41433  0.35333  1.0000
  I   I63       1.0  0.27762  0.06278  0.67400  1.0000
  I   I64       1.0  0.85514  0.43257  0.64370  1.0000
  I   I65       1.0  0.92850  0.36211  0.55865  1.0000
  I   I66       1.0  0.66968  0.24079  0.61477  1.0000
  I   I67       1.0  0.65891  0.02743  0.11453  1.0000
  I   I68       1.0  0.34297  0.13858  0.75620  1.0000
  I   I69       1.0  0.56815  0.32561  0.18879  1.0000
  I   I70       1.0  0.44282  0.98495  0.46414  1.0000
  I   I71       1.0  0.60592  0.87841  0.97456  1.0000
  I   I72       1.0  0.84010  0.84597  0.15417  1.0000
  I   I73       1.0  0.31392  0.65658  0.73020  1.0000
  I   I74       1.0  0.80035  0.44855  0.44644  1.0000
  I   I75       1.0  0.85629  0.44404  0.39846  1.0000
  I   I76       1.0  0.75605  0.55224  0.87677  1.0000
  I   I77       1.0  0.69824  0.61338  0.87852  1.0000
  I   I78       1.0  0.08785  0.13145  0.07398  1.0000
  I   I79       1.0  0.44742  0.79514  0.28925  1.0000
  I   I80       1.0  0.65172  0.37062  0.42202  1.0000
  I   I81       1.0  0.68719  0.93353  0.91264  1.0000
  I   I82       1.0  0.73803  0.72125  0.63160  1.0000
  I   I83       1.0  0.85327  0.34752  0.20145  1.0000
  I   I84       1.0  0.03662  0.60816  0.91787  1.0000
  I   I85       1.0  0.14591  0.16458  0.25056  1.0000
  I   I86       1.0  0.54894  0.24747  0.66651  1.0000
  I   I87       1.0  0.48350  0.22951  0.08189  1.0000
  I   I88       1.0  0.80835  0.82846  0.34609  1.0000
  I   I89       1.0  0.58458  0.65613  0.34504  1.0000
  I   I90       1.0  0.96851  0.87481  0.68948  1.0000
  I   I91       1.0  0.54727  0.52505  0.79615  1.0000
  I   I92       1.0  0.93980  0.20309  0.86741  1.0000
  I   I93       1.0  0.76222  0.68940  0.09023  1.0000
  I   I94       1.0  0.40478  0.57174  0.08127  1.0000
  I   I95       1.0  0.11528  0.02081  0.96836  1.0000
  I   I96       1.0  0.81345  0.05392  0.08983  1.0000
  I   I97       1.0  0.98425  0.66960  0.90026  1.0000
  I   I98       1.0  0.79590  0.05812  0.52098  1.0000
  I   I99       1.0  0.52719  0.15199  0.47850  1.0000
  I   I100      1.0  0.43843  0.47121  0.47124  1.0000
  I   I101      1.0  0.38180  0.58249  0.56824  1.0000
  I   I102      1.0  0.15140  0.75550  0.30221  1.0000
  I   I103      1.0  0.00774  0.97065  0.18390  1.0000
  I   I104      1.0  0.10564  0.91592  0.03646  1.0000
  I   I105      1.0  0.99634  0.04196  0.63204  1.0000
  I   I106      1.0  0.26192  0.75006  0.57985  1.0000
  I   I107      1.0  0.94636  0.86642  0.19901  1.0000
  I   I108      1.0  0.29021  0.67428  0.49836  1.0000
  I   I109      1.0  0.48846  0.76722  0.84729  1.0000
  I   I110      1.0  0.33034  0.37267  0.55690  1.0000
  I   I111      1.0  0.23472  0.06787  0.75774  1.0000
  I   I112      1.0  0.72142  0.53469  0.74648  1.0000
  I   I113      1.0  0.91452  0.39692  0.68783  1.0000
  I   I114      1.0  0.23727  0.27661  0.52761  1.0000
  I   I115      1.0  0.75694  0.92382  0.21834  1.0000
  I   I116      1.0  0.64897  0.98509  0.03911  1.0000
  I   I117      1.0  0.43895  0.08385  0.77159  1.0000
  I   I118      1.0  0.50583  0.93736  0.42580  1.0000
  I   I119      1.0  0.51812  0.98752  0.40434  1.0000
  I   I120      1.0  0.81185  0.80677  0.21535  1.0000
  I   I121      1.0  0.42095  0.53294  0.79762  1.0000
  I   I122      1.0  0.10605  0.28939  0.04465  1.0000
  I   I123      1.0  0.89600  0.32154  0.35186  1.0000
  I   I124      1.0  0.88653  0.53608  0.03038  1.0000
  I   I125      1.0  0.66527  0.61080  0.04604  1.0000
  I   I126      1.0  0.11445  0.08067  0.17695  1.0000
  I   I127      1.0  0.46602  0.69280  0.20313  1.0000
  I   I128      1.0  0.67981  0.41445  0.41350  1.0000
  I   I129      1.0  0.76042  0.93728  0.94050  1.0000
  I   I130      1.0  0.07072  0.46254  0.96155  1.0000
  I   I131      1.0  0.65643  0.79282  0.56899  1.0000
  I   I132      1.0  0.86969  0.28634  0.02286  1.0000
  I   I133      1.0  0.43131  0.21018  0.07911  1.0000
  I   I134      1.0  0.52394  0.31605  0.62559  1.0000
  I   I135      1.0  0.57775  0.19844  0.56453  1.0000
  I   I136      1.0  0.90216  0.88409  0.67365  1.0000
  I   I137      1.0  0.82436  0.75058  0.31899  1.0000
  I   I138      1.0  0.65621  0.65536  0.31868  1.0000
  I   I139      1.0  0.53224  0.59142  0.67279  1.0000
  I   I140      1.0  0.94317  0.16356  0.00280  1.0000
  I   I141      1.0  0.68830  0.74657  0.22752  1.0000
  I   I142      1.0  0.38838  0.64452  0.10450  1.0000
  I   I143      1.0  0.11314  0.96497  0.90811  1.0000
  I   I144      1.0  0.82054  0.17313  0.10336  1.0000
  I   I145      1.0  0.75136  0.03027  0.59811  1.0000
  I   I146      1.0  0.54955  0.09879  0.62425  1.0000
  I   I147      1.0  0.91313  0.72711  0.91539  1.0000
  I   I148      1.0  0.43214  0.54727  0.47128  1.0000
  I   I149      1.0  0.04708  0.80756  0.12139  1.0000
  I   I150      1.0  0.43722  0.06358  0.94885  1.0000
  I   I151      1.0  0.10820  0.96825  0.08640  1.0000
  I   I152      1.0  0.14156  0.58965  0.14097  1.0000
  I   I153      1.0  0.96382  0.04243  0.52822  1.0000
  I   I154      1.0  0.29107  0.08227  0.90779  1.0000
  I   I155      1.0  0.36886  0.33499  0.84109  1.0000
  I   I156      1.0  0.16341  0.73336  0.56388  1.0000
  I   I157      1.0  0.54304  0.76053  0.93035  1.0000
  I   I158      1.0  0.15987  0.05834  0.66041  1.0000
  I   I159      1.0  0.46739  0.83155  0.88266  1.0000
  I   I160      1.0  0.67766  0.61414  0.74329  1.0000
  I   I161      1.0  0.22420  0.22286  0.44514  1.0000
  I   I162      1.0  0.71794  0.63597  0.59677  1.0000
  I   I163      1.0  0.71875  0.96425  0.09461  1.0000
  I   I164      1.0  0.38831  0.05880  0.79993  1.0000
  I   I165      1.0  0.49817  0.35800  0.99525  1.0000
  I   I166      1.0  0.50441  0.93776  0.54537  1.0000
  I   I167      1.0  0.63882  0.80878  0.97208  1.0000
  I   I168      1.0  0.36243  0.93988  0.46245  1.0000
  I   I169      1.0  0.08882  0.34718  0.14018  1.0000
  I   I170      1.0  0.16213  0.31927  0.12587  1.0000
  I   I171      1.0  0.35905  0.52823  0.83451  1.0000
  I   I172      1.0  0.91605  0.47466  0.97838  1.0000
  I   I173      1.0  0.06147  0.17515  0.16169  1.0000
  I   I174      1.0  0.88549  0.56895  0.15343  1.0000
  I   I175      1.0  0.74633  0.34885  0.51371  1.0000
  I   I176      1.0  0.74624  0.88466  0.94002  1.0000
  I   I177      1.0  0.46562  0.77659  0.42106  1.0000
  I   I178      1.0  0.78088  0.74992  0.63320  1.0000
  I   I179      1.0  0.80833  0.32475  0.11179  1.0000
  I   I180      1.0  0.03199  0.52766  0.99560  1.0000
  I   I181      1.0  0.12821  0.23036  0.31057  1.0000
  I   I182      1.0  0.57591  0.18078  0.70379  1.0000
  I   I183      1.0  0.43332  0.28847  0.02299  1.0000
  I   I184      1.0  0.85942  0.77695  0.45694  1.0000
  I   I185      1.0  0.71571  0.60900  0.25964  1.0000
  I   I186      1.0  0.98100  0.76782  0.60253  1.0000
  I   I187      1.0  0.01105  0.13771  0.92778  1.0000
  I   I188      1.0  0.80587  0.69469  0.19297  1.0000
  I   I189      1.0  0.58926  0.56523  0.75535  1.0000
  I   I190      1.0  0.17713  0.05586  0.95613  1.0000
  I   I191      1.0  0.75745  0.15946  0.13987  1.0000
  I   I192      1.0  0.36190  0.57100  0.21729  1.0000
  I   I193      1.0  0.76496  0.01843  0.47687  1.0000
  I   I194      1.0  0.72549  0.20621  0.03933  1.0000
  I   I195      1.0  0.97630  0.73127  0.97027  1.0000
  I   I196      1.0  0.43457  0.47215  0.34747  1.0000
  I   I197      1.0  0.30015  0.97602  0.03051  1.0000
  I   I198      1.0  0.47441  0.04252  0.07893  1.0000
  I   I199      1.0  0.05061  0.92199  0.07567  1.0000
  I   I200      1.0  0.17942  0.60123  0.03930  1.0000
  I   I201      1.0  0.99512  0.97331  0.60104  1.0000
  I   I202      1.0  0.90581  0.93648  0.21467  1.0000
  I   I203      1.0  0.53628  0.38516  0.13523  1.0000
  I   I204      1.0  0.18034  0.75411  0.66374  1.0000
  I   I205      1.0  0.35217  0.36345  0.42454  1.0000
  I   I206      1.0  0.15310  0.09256  0.77510  1.0000
  I   I207      1.0  0.42616  0.80593  0.93386  1.0000
  I   I208      1.0  0.89174  0.33866  0.63812  1.0000
  I   I209      1.0  0.25040  0.20557  0.57657  1.0000
  I   I210      1.0  0.66043  0.61779  0.61545  1.0000
  I   I211      1.0  0.67928  0.92922  0.13028  1.0000
  I   I212      1.0  0.39393  0.16099  0.75416  1.0000
  I   I213      1.0  0.50131  0.32169  0.19279  1.0000
  I   I214      1.0  0.55981  0.94535  0.51562  1.0000
  I   I215      1.0  0.64423  0.85326  0.06750  1.0000
  I   I216      1.0  0.39864  0.90193  0.56468  1.0000
  I   I217      1.0  0.11693  0.35306  0.00872  1.0000
  I   I218      1.0  0.87146  0.39815  0.30973  1.0000
  I   I219      1.0  0.38609  0.61290  0.74098  1.0000
  I   I220      1.0  0.68503  0.55681  0.91353  1.0000
  I   I221      1.0  0.98381  0.21078  0.12192  1.0000
  I   I222      1.0  0.83065  0.55908  0.12926  1.0000
  I   I223      1.0  0.68491  0.33785  0.51611  1.0000
  I   I224      1.0  0.71259  0.96597  0.85845  1.0000
  I   I225      1.0  0.41439  0.75745  0.25136  1.0000
  I   I226      1.0  0.75424  0.75456  0.75308  1.0000
  I   I227      1.0  0.77745  0.38930  0.19420  1.0000
  I   I228      1.0  0.01643  0.50439  0.87137  1.0000
  I   I229      1.0  0.16637  0.17002  0.37219  1.0000
  I   I230      1.0  0.56582  0.30129  0.52908  1.0000
  I   I231      1.0  0.53448  0.24968  0.03245  1.0000
  I   I232      1.0  0.88040  0.78048  0.33718  1.0000
  I   I233      1.0  0.65092  0.60534  0.38185  1.0000
  I   I234      1.0  0.98315  0.82624  0.58991  1.0000
  I   I235      1.0  0.28714  0.02335  0.92754  1.0000
  I   I236      1.0  0.82313  0.62386  0.21757  1.0000
  I   I237      1.0  0.58360  0.51611  0.68215  1.0000
  I   I238      1.0  0.22070  0.98758  0.99478  1.0000
  I   I239      1.0  0.79678  0.12255  0.01708  1.0000
  I   I240      1.0  0.34241  0.64383  0.20069  1.0000
  I   I241      1.0  0.69235  0.05222  0.51546  1.0000
  I   I242      1.0  0.49998  0.16644  0.59797  1.0000
  I   I243      1.0  0.95630  0.74644  0.83890  1.0000
  I   I244      1.0  0.39266  0.53744  0.38550  1.0000
  I   I245      1.0  0.11119  0.80650  0.20689  1.0000
  I   I246      1.0  0.45327  0.98153  0.09947  1.0000
  I   I247      1.0  0.03567  0.98641  0.05288  1.0000
  I   I248      1.0  0.06217  0.62549  0.19953  1.0000
  I   I249      1.0  0.05266  0.97803  0.60069  1.0000
  I   I250      1.0  0.93766  0.91318  0.05923  1.0000
  I   I251      1.0  0.32824  0.37544  0.73290  1.0000
  I   I252      1.0  0.22622  0.73684  0.50615  1.0000
  I   I253      1.0  0.40314  0.35355  0.51384  1.0000
  I   I254      1.0  0.22425  0.09670  0.56932  1.0000
  I   I255      1.0  0.48191  0.78642  0.01451  1.0000
  I   I256      1.0  0.95574  0.29606  0.63092  1.0000
  I   I257      1.0  0.29950  0.20248  0.47897  1.0000
  I   I258      1.0  0.65822  0.56739  0.69728  1.0000
  I   I259      1.0  0.69317  0.90609  0.25739  1.0000
  I   I260      1.0  0.40831  0.03348  0.67755  1.0000
  I   I261      1.0  0.47931  0.37921  0.10969  1.0000
  I   I262      1.0  0.49285  0.00980  0.52192  1.0000
  I   I263      1.0  0.61310  0.81250  0.11223  1.0000
  I   I264      1.0  0.36740  0.98025  0.56080  1.0000
  I   I265      1.0  0.16847  0.29363  0.00902  1.0000
  I   I266      1.0  0.83078  0.37012  0.37326  1.0000
  I   I267      1.0  0.35227  0.57361  0.71473  1.0000
  I   I268      1.0  0.73593  0.54118  0.00326  1.0000
  I   I269      1.0  0.04557  0.13631  0.23146  1.0000
  I   I270      1.0  0.92008  0.43819  0.07583  1.0000
  I   I271      1.0  0.68712  0.39180  0.55896  1.0000
  I   I272      1.0  0.68985  0.95067  0.72266  1.0000
  I   I273      1.0  0.50143  0.73040  0.31192  1.0000
  I   I274      1.0  0.71684  0.80842  0.66858  1.0000
  I   I275      1.0  0.79506  0.29852  0.01293  1.0000
  I   I276      1.0  0.08337  0.47808  0.85265  1.0000
  I   I277      1.0  0.07800  0.21898  0.39250  1.0000
  I   I278      1.0  0.60215  0.24232  0.57821  1.0000
  I   I279      1.0  0.47930  0.23698  0.96276  1.0000
  I   I280      1.0  0.80077  0.71880  0.41066  1.0000
  I   I281      1.0  0.71711  0.55491  0.31221  1.0000
  I   I282      1.0  0.94014  0.89384  0.55785  1.0000
  I   I283      1.0  0.21961  0.10421  0.94572  1.0000
  I   I284      1.0  0.75793  0.67927  0.21277  1.0000
  I   I285      1.0  0.50736  0.53410  0.70647  1.0000
  I   I286      1.0  0.15444  0.02376  0.85219  1.0000
  I   I287      1.0  0.74041  0.10846  0.09193  1.0000
  I   I288      1.0  0.39742  0.51038  0.11682  1.0000
  I   I289      1.0  0.75686  0.96582  0.48961  1.0000
  I   I290      1.0  0.68742  0.19627  0.13158  1.0000
  I   I291      1.0  0.51875  0.09414  0.49233  1.0000
  I   I292      1.0  0.34400  0.56006  0.48647  1.0000
  I   I293      1.0  0.12648  0.76867  0.06905  1.0000
  I   I294      1.0  0.44848  0.98297  0.98103  1.0000
  I   I295      1.0  0.99264  0.03075  0.14590  1.0000
  I   I296      1.0  0.07936  0.56463  0.12733  1.0000
  I   I297      1.0  0.05957  0.03444  0.67431  1.0000
  I   I298      1.0  0.24775  0.04628  0.04147  1.0000
  I   I299      1.0  0.87679  0.88107  0.00365  1.0000
  I   I300      1.0  0.23224  0.67808  0.56150  1.0000
  I   I301      1.0  0.53958  0.70564  0.91518  1.0000
  I   I302      1.0  0.35942  0.43758  0.32795  1.0000
  I   I303      1.0  0.23179  0.12008  0.68157  1.0000
  I   I304      1.0  0.71512  0.55053  0.60845  1.0000
  I   I305      1.0  0.83055  0.39157  0.71694  1.0000
  I   I306      1.0  0.62055  0.21633  0.70063  1.0000
  I   I307      1.0  0.73812  0.87866  0.15596  1.0000
  I   I308      1.0  0.38298  0.12521  0.86547  1.0000
  I   I309      1.0  0.55031  0.32786  0.06351  1.0000
  I   I310      1.0  0.43963  0.93369  0.55021  1.0000
  I   I311      1.0  0.58501  0.84500  0.20717  1.0000
  I   I312      1.0  0.82585  0.80222  0.07044  1.0000
  I   I313      1.0  0.33651  0.64733  0.84152  1.0000
  I   I314      1.0  0.20225  0.22502  0.09718  1.0000
  I   I315      1.0  0.92277  0.36682  0.38636  1.0000
  I   I316      1.0  0.88465  0.49377  0.16969  1.0000
  I   I317      1.0  0.73220  0.60572  0.97268  1.0000
  I   I318      1.0  0.98498  0.20629  0.24555  1.0000
  I   I319      1.0  0.46408  0.75529  0.17684  1.0000
  I   I320      1.0  0.73491  0.33268  0.42153  1.0000
  I   I321      1.0  0.64738  0.98105  0.82520  1.0000
  I   I322      1.0  0.69625  0.72288  0.53576  1.0000
  I   I323      1.0  0.83731  0.36343  0.05548  1.0000
  I   I324      1.0  0.98482  0.59509  0.96416  1.0000
  I   I325      1.0  0.17219  0.10794  0.40281  1.0000
  I   I326      1.0  0.63908  0.17031  0.61374  1.0000
  I   I327      1.0  0.55933  0.17102  0.03540  1.0000
  I   I328      1.0  0.79442  0.79166  0.41017  1.0000
  I   I329      1.0  0.60464  0.66338  0.46889  1.0000
  I   I330      1.0  0.95349  0.82334  0.70185  1.0000
  I   I331      1.0  0.47719  0.58037  0.81460  1.0000
  I   I332      1.0  0.30621  0.05760  0.04780  1.0000
  I   I333      1.0  0.69406  0.72589  0.11003  1.0000
  I   I334      1.0  0.40821  0.60301  0.22026  1.0000
  I   I335      1.0  0.09456  0.02692  0.83495  1.0000
  I   I336      1.0  0.88094  0.11741  0.03902  1.0000
  I   I337      1.0  0.82290  0.00761  0.62254  1.0000
  I   I338      1.0  0.70636  0.15366  0.01442  1.0000
  I   I339      1.0  0.59205  0.08298  0.49355  1.0000
  I   I340      1.0  0.37711  0.61250  0.44980  1.0000
  I   I341      1.0  0.10030  0.75420  0.19634  1.0000
  I   I342      1.0  0.40670  0.04302  0.05468  1.0000
  I   I343      1.0  0.07984  0.94257  0.18852  1.0000
  I   I344      1.0  0.09123  0.62643  0.07789  1.0000
  I   I345      1.0  0.08434  0.00795  0.53827  1.0000
  I   I346      1.0  0.28962  0.01658  0.13726  1.0000
  I   I347      1.0  0.97624  0.90614  0.17300  1.0000
  I   I348      1.0  0.25151  0.69344  0.64903  1.0000
  I   I349      1.0  0.54704  0.72616  0.03615  1.0000
  I   I350      1.0  0.36490  0.41423  0.57461  1.0000
  I   I351      1.0  0.17681  0.11865  0.68089  1.0000
  I   I352      1.0  0.74257  0.57091  0.51789  1.0000
  I   I353      1.0  0.90429  0.34829  0.74024  1.0000
  I   I354      1.0  0.68500  0.18246  0.56162  1.0000
  I   I355      1.0  0.68018  0.97197  0.21192  1.0000
  I   I356      1.0  0.39720  0.09958  0.68130  1.0000
  I   I357      1.0  0.47798  0.42935  0.06383  1.0000
  I   I358      1.0  0.42916  0.92206  0.44569  1.0000
  I   I359      1.0  0.58417  0.89378  0.11883  1.0000
  I   I360      1.0  0.89069  0.78034  0.14160  1.0000
  I   I361      1.0  0.31787  0.59921  0.83653  1.0000
  I   I362      1.0  0.14115  0.27551  0.13506  1.0000
  I   I363      1.0  0.80174  0.44275  0.32675  1.0000
  I   I364      1.0  0.85328  0.50350  0.05166  1.0000
  I   I365      1.0  0.64515  0.66947  0.99343  1.0000
  I   I366      1.0  0.99177  0.15115  0.17819  1.0000
  I   I367      1.0  0.45756  0.70989  0.32849  1.0000
  I   I368      1.0  0.62243  0.43773  0.49138  1.0000
  I   I369      1.0  0.69963  0.89589  0.79709  1.0000
  I   I370      1.0  0.68214  0.77062  0.69820  1.0000
  I   I371      1.0  0.83091  0.33224  0.93573  1.0000
  I   I372      1.0  0.06242  0.54265  0.87315  1.0000
  I   I373      1.0  0.11501  0.14646  0.32484  1.0000
  I   I374      1.0  0.51978  0.27094  0.53618  1.0000
  I   I375      1.0  0.42032  0.23684  0.95516  1.0000
  I   I376      1.0  0.87744  0.71458  0.39492  1.0000
  I   I377      1.0  0.59011  0.70807  0.37814  1.0000
  I   I378      1.0  0.91851  0.79191  0.67185  1.0000
  I   I379      1.0  0.46692  0.61707  0.69611  1.0000
  I   I380      1.0  0.97330  0.20877  0.97138  1.0000
  I   I381      1.0  0.83331  0.64774  0.08343  1.0000
  I   I382      1.0  0.34807  0.60571  0.08864  1.0000
  I   I383      1.0  0.18023  0.97050  0.91729  1.0000
  I   I384      1.0  0.81038  0.16875  0.98870  1.0000
