data_image0
_chemical_formula_structural       Ti96I384
_chemical_formula_sum              "Ti96 I384"
_cell_length_a       43.7192
_cell_length_b       43.4326
_cell_length_c       22.5457
_cell_angle_alpha    88.7757
_cell_angle_beta     88.7757
_cell_angle_gamma    62.1586

_space_group_name_H-M_alt    "P 1"
_space_group_IT_number       1

loop_
  _space_group_symop_operation_xyz
  'x, y, z'

loop_
  _atom_site_type_symbol
  _atom_site_label
  _atom_site_symmetry_multiplicity
  _atom_site_fract_x
  _atom_site_fract_y
  _atom_site_fract_z
  _atom_site_occupancy
  Ti  Ti1       1.0  0.33476  0.08200  0.94352  1.0000
  Ti  Ti2       1.0  0.24124  0.06057  0.32085  1.0000
  Ti  Ti3       1.0  0.32351  0.08325  0.61288  1.0000
  Ti  Ti4       1.0  0.15769  0.34008  0.20467  1.0000
  Ti  Ti5       1.0  0.17199  0.32386  0.52176  1.0000
  Ti  Ti6       1.0  0.15144  0.33837  0.86718  1.0000
  Ti  Ti7       1.0  0.06526  0.63849  0.51691  1.0000
  Ti  Ti8       1.0  0.02564  0.66164  0.86392  1.0000
  Ti  Ti9       1.0  0.06382  0.64096  0.18948  1.0000
  Ti  Ti10      1.0  0.06892  0.88796  0.24903  1.0000
  Ti  Ti11      1.0  0.09399  0.85179  0.66093  1.0000
  Ti  Ti12      1.0  0.06228  0.84511  0.93633  1.0000
  Ti  Ti13      1.0  0.54152  0.05616  0.24539  1.0000
  Ti  Ti14      1.0  0.54320  0.03853  0.59258  1.0000
  Ti  Ti15      1.0  0.53846  0.07735  0.91038  1.0000
  Ti  Ti16      1.0  0.36163  0.36762  0.51213  1.0000
  Ti  Ti17      1.0  0.30573  0.43711  0.80806  1.0000
  Ti  Ti18      1.0  0.36723  0.35053  0.16728  1.0000
  Ti  Ti19      1.0  0.41876  0.68980  0.51546  1.0000
  Ti  Ti20      1.0  0.33480  0.68200  0.85459  1.0000
  Ti  Ti21      1.0  0.32230  0.65961  0.30096  1.0000
  Ti  Ti22      1.0  0.23893  0.92765  0.77935  1.0000
  Ti  Ti23      1.0  0.41172  0.88692  0.17260  1.0000
  Ti  Ti24      1.0  0.43752  0.83689  0.83278  1.0000
  Ti  Ti25      1.0  0.63150  0.20872  0.46511  1.0000
  Ti  Ti26      1.0  0.63807  0.20714  0.81953  1.0000
  Ti  Ti27      1.0  0.60532  0.21420  0.12360  1.0000
  Ti  Ti28      1.0  0.60325  0.41634  0.11677  1.0000
  Ti  Ti29      1.0  0.61702  0.40399  0.45477  1.0000
  Ti  Ti30      1.0  0.61089  0.41150  0.81913  1.0000
  Ti  Ti31      1.0  0.67130  0.57473  0.16899  1.0000
  Ti  Ti32      1.0  0.70739  0.53466  0.50215  1.0000
  Ti  Ti33      1.0  0.70548  0.51536  0.85154  1.0000
  Ti  Ti34      1.0  0.71015  0.75586  0.27856  1.0000
  Ti  Ti35      1.0  0.69227  0.74627  0.62763  1.0000
  Ti  Ti36      1.0  0.71333  0.73768  0.96411  1.0000
  Ti  Ti37      1.0  0.84983  0.10697  0.23741  1.0000
  Ti  Ti38      1.0  0.85632  0.10730  0.58126  1.0000
  Ti  Ti39      1.0  0.83346  0.10760  0.92146  1.0000
  Ti  Ti40      1.0  0.96665  0.29773  0.02817  1.0000
  Ti  Ti41      1.0  0.01070  0.23884  0.36368  1.0000
  Ti  Ti42      1.0  0.04214  0.26117  0.65552  1.0000
  Ti  Ti43      1.0  0.95737  0.52883  0.25077  1.0000
  Ti  Ti44      1.0  0.92884  0.53058  0.57066  1.0000
  Ti  Ti45      1.0  0.93630  0.55027  0.88914  1.0000
  Ti  Ti46      1.0  0.77699  0.90785  0.25114  1.0000
  Ti  Ti47      1.0  0.79966  0.92670  0.58000  1.0000
  Ti  Ti48      1.0  0.77434  0.92556  0.93347  1.0000
  Ti  Ti49      1.0  0.28950  0.10443  0.79417  1.0000
  Ti  Ti50      1.0  0.18781  0.10312  0.16783  1.0000
  Ti  Ti51      1.0  0.23299  0.07910  0.50988  1.0000
  Ti  Ti52      1.0  0.13339  0.39179  0.03339  1.0000
  Ti  Ti53      1.0  0.14441  0.40851  0.37575  1.0000
  Ti  Ti54      1.0  0.13846  0.38864  0.69035  1.0000
  Ti  Ti55      1.0  0.00485  0.68504  0.34541  1.0000
  Ti  Ti56      1.0  0.95445  0.70328  0.69635  1.0000
  Ti  Ti57      1.0  0.99061  0.70100  0.05271  1.0000
  Ti  Ti58      1.0  0.00239  0.87293  0.11412  1.0000
  Ti  Ti59      1.0  0.99346  0.92542  0.38903  1.0000
  Ti  Ti60      1.0  0.99737  0.88509  0.77808  1.0000
  Ti  Ti61      1.0  0.47264  0.11197  0.07434  1.0000
  Ti  Ti62      1.0  0.49641  0.09360  0.42729  1.0000
  Ti  Ti63      1.0  0.47746  0.11485  0.74814  1.0000
  Ti  Ti64      1.0  0.33818  0.37308  0.32631  1.0000
  Ti  Ti65      1.0  0.30870  0.46013  0.62080  1.0000
  Ti  Ti66      1.0  0.24552  0.53609  0.93205  1.0000
  Ti  Ti67      1.0  0.31376  0.73311  0.45271  1.0000
  Ti  Ti68      1.0  0.30279  0.63352  0.73197  1.0000
  Ti  Ti69      1.0  0.20856  0.67719  0.27879  1.0000
  Ti  Ti70      1.0  0.34259  0.88536  0.80730  1.0000
  Ti  Ti71      1.0  0.36818  0.83674  0.18334  1.0000
  Ti  Ti72      1.0  0.48021  0.91875  0.16733  1.0000
  Ti  Ti73      1.0  0.55785  0.25911  0.30616  1.0000
  Ti  Ti74      1.0  0.59304  0.24906  0.63464  1.0000
  Ti  Ti75      1.0  0.54540  0.27697  0.94849  1.0000
  Ti  Ti76      1.0  0.53219  0.47172  0.96064  1.0000
  Ti  Ti77      1.0  0.55867  0.45160  0.29824  1.0000
  Ti  Ti78      1.0  0.55607  0.46052  0.63392  1.0000
  Ti  Ti79      1.0  0.63080  0.59264  0.98687  1.0000
  Ti  Ti80      1.0  0.60177  0.61117  0.33350  1.0000
  Ti  Ti81      1.0  0.66814  0.55583  0.66591  1.0000
  Ti  Ti82      1.0  0.65250  0.80520  0.11935  1.0000
  Ti  Ti83      1.0  0.64017  0.80553  0.43898  1.0000
  Ti  Ti84      1.0  0.64560  0.79155  0.79256  1.0000
  Ti  Ti85      1.0  0.84156  0.17205  0.09035  1.0000
  Ti  Ti86      1.0  0.85657  0.16906  0.40263  1.0000
  Ti  Ti87      1.0  0.83453  0.16923  0.75089  1.0000
  Ti  Ti88      1.0  0.92981  0.35636  0.88899  1.0000
  Ti  Ti89      1.0  0.95115  0.32392  0.21281  1.0000
  Ti  Ti90      1.0  0.95999  0.29017  0.53403  1.0000
  Ti  Ti91      1.0  0.88664  0.59992  0.05203  1.0000
  Ti  Ti92      1.0  0.88539  0.58218  0.41734  1.0000
  Ti  Ti93      1.0  0.86983  0.58167  0.74097  1.0000
  Ti  Ti94      1.0  0.70697  0.96181  0.08673  1.0000
  Ti  Ti95      1.0  0.72595  0.94325  0.42525  1.0000
  Ti  Ti96      1.0  0.73269  0.95763  0.74518  1.0000
  I   I1        1.0  0.20208  0.05695  0.08639  1.0000
  I   I2        1.0  0.22421  0.03590  0.44553  1.0000
  I   I3        1.0  0.31348  0.04124  0.71885  1.0000
  I   I4        1.0  0.09545  0.41012  0.27535  1.0000
  I   I5        1.0  0.11166  0.37130  0.59372  1.0000
  I   I6        1.0  0.10075  0.40079  0.90849  1.0000
  I   I7        1.0  0.94102  0.67734  0.60223  1.0000
  I   I8        1.0  0.98161  0.65439  0.95459  1.0000
  I   I9        1.0  0.99992  0.65627  0.24928  1.0000
  I   I10       1.0  0.04158  0.86176  0.36437  1.0000
  I   I11       1.0  0.02599  0.85189  0.66957  1.0000
  I   I12       1.0  0.01869  0.82953  0.00459  1.0000
  I   I13       1.0  0.48136  0.06591  0.32575  1.0000
  I   I14       1.0  0.47534  0.07539  0.63872  1.0000
  I   I15       1.0  0.47039  0.08656  0.96934  1.0000
  I   I16       1.0  0.29616  0.42030  0.53209  1.0000
  I   I17       1.0  0.23626  0.49498  0.83379  1.0000
  I   I18       1.0  0.32789  0.33192  0.25220  1.0000
  I   I19       1.0  0.35083  0.58658  0.67235  1.0000
  I   I20       1.0  0.18350  0.63556  0.32300  1.0000
  I   I21       1.0  0.28650  0.68933  0.41038  1.0000
  I   I22       1.0  0.31527  0.86744  0.25658  1.0000
  I   I23       1.0  0.35676  0.91048  0.10909  1.0000
  I   I24       1.0  0.39274  0.82397  0.74817  1.0000
  I   I25       1.0  0.57011  0.22910  0.53656  1.0000
  I   I26       1.0  0.56242  0.23269  0.84687  1.0000
  I   I27       1.0  0.54528  0.23600  0.20706  1.0000
  I   I28       1.0  0.54870  0.42030  0.19574  1.0000
  I   I29       1.0  0.55301  0.42088  0.53328  1.0000
  I   I30       1.0  0.54211  0.42357  0.86392  1.0000
  I   I31       1.0  0.61481  0.56754  0.21961  1.0000
  I   I32       1.0  0.65830  0.51795  0.55991  1.0000
  I   I33       1.0  0.63176  0.54333  0.89637  1.0000
  I   I34       1.0  0.64086  0.77106  0.33847  1.0000
  I   I35       1.0  0.63297  0.76074  0.68981  1.0000
  I   I36       1.0  0.64188  0.77561  0.01310  1.0000
  I   I37       1.0  0.81302  0.17338  0.31087  1.0000
  I   I38       1.0  0.81769  0.17849  0.62375  1.0000
  I   I39       1.0  0.79977  0.17166  0.98820  1.0000
  I   I40       1.0  0.91942  0.30950  0.11498  1.0000
  I   I41       1.0  0.93937  0.26863  0.43634  1.0000
  I   I42       1.0  0.92123  0.32854  0.79707  1.0000
  I   I43       1.0  0.88917  0.55050  0.29190  1.0000
  I   I44       1.0  0.86334  0.54738  0.60998  1.0000
  I   I45       1.0  0.88920  0.54556  0.97710  1.0000
  I   I46       1.0  0.72431  0.90717  0.32269  1.0000
  I   I47       1.0  0.75890  0.90635  0.65289  1.0000
  I   I48       1.0  0.70998  0.93194  0.97461  1.0000
  I   I49       1.0  0.27592  0.15079  0.87629  1.0000
  I   I50       1.0  0.17164  0.12560  0.28543  1.0000
  I   I51       1.0  0.24773  0.11405  0.60866  1.0000
  I   I52       1.0  0.17685  0.37661  0.13113  1.0000
  I   I53       1.0  0.19490  0.37116  0.46006  1.0000
  I   I54       1.0  0.17530  0.37722  0.79166  1.0000
  I   I55       1.0  0.02042  0.70259  0.45872  1.0000
  I   I56       1.0  0.97479  0.72499  0.79774  1.0000
  I   I57       1.0  0.02065  0.72079  0.13497  1.0000
  I   I58       1.0  0.99123  0.90842  0.21389  1.0000
  I   I59       1.0  0.02551  0.93870  0.47414  1.0000
  I   I60       1.0  0.99578  0.90727  0.88490  1.0000
  I   I61       1.0  0.49651  0.12233  0.19325  1.0000
  I   I62       1.0  0.52616  0.10123  0.52527  1.0000
  I   I63       1.0  0.49551  0.13952  0.84182  1.0000
  I   I64       1.0  0.35809  0.41006  0.40911  1.0000
  I   I65       1.0  0.32290  0.47820  0.72049  1.0000
  I   I66       1.0  0.27034  0.57213  0.98352  1.0000
  I   I67       1.0  0.36381  0.75437  0.44786  1.0000
  I   I68       1.0  0.34022  0.61549  0.84229  1.0000
  I   I69       1.0  0.25009  0.71390  0.27375  1.0000
  I   I70       1.0  0.28943  0.93179  0.87005  1.0000
  I   I71       1.0  0.42744  0.82594  0.10142  1.0000
  I   I72       1.0  0.50612  0.91844  0.27270  1.0000
  I   I73       1.0  0.60076  0.26983  0.39395  1.0000
  I   I74       1.0  0.61098  0.27423  0.73920  1.0000
  I   I75       1.0  0.56575  0.28224  0.05737  1.0000
  I   I76       1.0  0.54586  0.48999  0.06660  1.0000
  I   I77       1.0  0.57174  0.47072  0.39613  1.0000
  I   I78       1.0  0.58752  0.47429  0.72853  1.0000
  I   I79       1.0  0.62720  0.63820  0.09602  1.0000
  I   I80       1.0  0.60283  0.65362  0.41752  1.0000
  I   I81       1.0  0.68927  0.58047  0.75588  1.0000
  I   I82       1.0  0.66684  0.82796  0.21957  1.0000
  I   I83       1.0  0.66022  0.81308  0.54596  1.0000
  I   I84       1.0  0.68129  0.80165  0.87367  1.0000
  I   I85       1.0  0.87434  0.15358  0.19895  1.0000
  I   I86       1.0  0.89994  0.13501  0.49958  1.0000
  I   I87       1.0  0.86636  0.14402  0.86947  1.0000
  I   I88       1.0  0.93962  0.37356  0.00816  1.0000
  I   I89       1.0  0.99531  0.31527  0.30565  1.0000
  I   I90       1.0  0.97668  0.31970  0.64274  1.0000
  I   I91       1.0  0.91039  0.61676  0.14759  1.0000
  I   I92       1.0  0.89809  0.60112  0.52129  1.0000
  I   I93       1.0  0.89231  0.61138  0.81993  1.0000
  I   I94       1.0  0.72524  0.97881  0.19676  1.0000
  I   I95       1.0  0.74155  0.97904  0.50456  1.0000
  I   I96       1.0  0.73517  0.98266  0.85128  1.0000
  I   I97       1.0  0.31971  0.13060  0.69127  1.0000
  I   I98       1.0  0.30086  0.09565  0.04358  1.0000
  I   I99       1.0  0.25572  0.10290  0.39279  1.0000
  I   I100      1.0  0.18651  0.34104  0.95932  1.0000
  I   I101      1.0  0.18598  0.35576  0.29535  1.0000
  I   I102      1.0  0.19514  0.33471  0.62825  1.0000
  I   I103      1.0  0.07131  0.67465  0.28625  1.0000
  I   I104      1.0  0.07871  0.66317  0.60931  1.0000
  I   I105      1.0  0.04082  0.69251  0.96102  1.0000
  I   I106      1.0  0.04616  0.88850  0.03005  1.0000
  I   I107      1.0  0.03116  0.95151  0.30301  1.0000
  I   I108      1.0  0.05486  0.90354  0.74830  1.0000
  I   I109      1.0  0.53154  0.11380  0.00511  1.0000
  I   I110      1.0  0.55724  0.07416  0.34905  1.0000
  I   I111      1.0  0.54333  0.08421  0.68722  1.0000
  I   I112      1.0  0.40185  0.33818  0.28816  1.0000
  I   I113      1.0  0.37545  0.40912  0.59784  1.0000
  I   I114      1.0  0.31404  0.47544  0.90950  1.0000
  I   I115      1.0  0.34138  0.70751  0.30961  1.0000
  I   I116      1.0  0.41438  0.70340  0.62555  1.0000
  I   I117      1.0  0.32474  0.74634  0.84218  1.0000
  I   I118      1.0  0.37929  0.85520  0.90479  1.0000
  I   I119      1.0  0.21529  0.99098  0.72228  1.0000
  I   I120      1.0  0.44615  0.90678  0.06652  1.0000
  I   I121      1.0  0.62042  0.24261  0.22964  1.0000
  I   I122      1.0  0.65555  0.23048  0.55543  1.0000
  I   I123      1.0  0.61863  0.25987  0.90834  1.0000
  I   I124      1.0  0.60785  0.45957  0.90551  1.0000
  I   I125      1.0  0.62089  0.43340  0.21661  1.0000
  I   I126      1.0  0.62771  0.42634  0.56308  1.0000
  I   I127      1.0  0.69891  0.56478  0.93160  1.0000
  I   I128      1.0  0.65216  0.61743  0.26657  1.0000
  I   I129      1.0  0.73628  0.52037  0.61490  1.0000
  I   I130      1.0  0.71873  0.77823  0.04663  1.0000
  I   I131      1.0  0.71113  0.78459  0.37780  1.0000
  I   I132      1.0  0.70805  0.77226  0.71778  1.0000
  I   I133      1.0  0.87327  0.11067  0.03094  1.0000
  I   I134      1.0  0.89164  0.10359  0.33160  1.0000
  I   I135      1.0  0.88714  0.10865  0.69208  1.0000
  I   I136      1.0  0.05456  0.31208  0.70009  1.0000
  I   I137      1.0  0.00951  0.29487  0.11158  1.0000
  I   I138      1.0  0.02967  0.26032  0.45813  1.0000
  I   I139      1.0  0.95433  0.56956  0.98906  1.0000
  I   I140      1.0  0.95257  0.56539  0.35374  1.0000
  I   I141      1.0  0.93191  0.56262  0.68541  1.0000
  I   I142      1.0  0.76371  0.96792  0.03306  1.0000
  I   I143      1.0  0.77509  0.95070  0.34947  1.0000
  I   I144      1.0  0.79556  0.96380  0.67242  1.0000
  I   I145      1.0  0.36199  0.06883  0.82231  1.0000
  I   I146      1.0  0.20920  0.03183  0.27042  1.0000
  I   I147      1.0  0.30474  0.04284  0.53843  1.0000
  I   I148      1.0  0.12023  0.33662  0.10409  1.0000
  I   I149      1.0  0.13178  0.34694  0.42776  1.0000
  I   I150      1.0  0.12776  0.33156  0.75003  1.0000
  I   I151      1.0  0.04279  0.61592  0.40635  1.0000
  I   I152      1.0  0.98986  0.64176  0.76312  1.0000
  I   I153      1.0  0.04311  0.63294  0.08306  1.0000
  I   I154      1.0  0.07247  0.82769  0.18241  1.0000
  I   I155      1.0  0.09494  0.82744  0.55991  1.0000
  I   I156      1.0  0.05335  0.81573  0.83966  1.0000
  I   I157      1.0  0.51191  0.04771  0.12171  1.0000
  I   I158      1.0  0.53692  0.01968  0.48126  1.0000
  I   I159      1.0  0.51043  0.05278  0.81468  1.0000
  I   I160      1.0  0.35114  0.32228  0.42896  1.0000
  I   I161      1.0  0.29528  0.41281  0.70082  1.0000
  I   I162      1.0  0.33041  0.36611  0.07062  1.0000
  I   I163      1.0  0.37068  0.67106  0.48811  1.0000
  I   I164      1.0  0.26699  0.69954  0.87266  1.0000
  I   I165      1.0  0.27454  0.62230  0.31355  1.0000
  I   I166      1.0  0.29268  0.86072  0.79501  1.0000
  I   I167      1.0  0.40292  0.85639  0.27004  1.0000
  I   I168      1.0  0.48561  0.82739  0.75619  1.0000
  I   I169      1.0  0.60379  0.19044  0.34280  1.0000
  I   I170      1.0  0.63332  0.18592  0.70184  1.0000
  I   I171      1.0  0.56692  0.20565  0.02877  1.0000
  I   I172      1.0  0.56950  0.40476  0.02484  1.0000
  I   I173      1.0  0.59631  0.38188  0.34804  1.0000
  I   I174      1.0  0.59128  0.39966  0.71397  1.0000
  I   I175      1.0  0.66000  0.53540  0.07326  1.0000
  I   I176      1.0  0.66008  0.56166  0.41388  1.0000
  I   I177      1.0  0.68465  0.49536  0.75553  1.0000
  I   I178      1.0  0.69029  0.73350  0.17397  1.0000
  I   I179      1.0  0.66378  0.73539  0.51369  1.0000
  I   I180      1.0  0.68940  0.72179  0.85954  1.0000
  I   I181      1.0  0.79718  0.13956  0.15850  1.0000
  I   I182      1.0  0.82492  0.12628  0.46415  1.0000
  I   I183      1.0  0.80149  0.13312  0.81367  1.0000
  I   I184      1.0  0.90425  0.31421  0.96211  1.0000
  I   I185      1.0  0.97143  0.25184  0.26129  1.0000
  I   I186      1.0  0.00860  0.23174  0.59825  1.0000
  I   I187      1.0  0.94114  0.51216  0.14809  1.0000
  I   I188      1.0  0.92437  0.50838  0.46258  1.0000
  I   I189      1.0  0.90833  0.51544  0.79888  1.0000
  I   I190      1.0  0.75558  0.88723  0.14945  1.0000
  I   I191      1.0  0.79563  0.89279  0.46695  1.0000
  I   I192      1.0  0.78986  0.89314  0.81307  1.0000
  I   I193      1.0  0.36622  0.11660  0.95562  1.0000
  I   I194      1.0  0.26275  0.07438  0.21272  1.0000
  I   I195      1.0  0.33824  0.11145  0.51765  1.0000
  I   I196      1.0  0.21574  0.27853  0.18509  1.0000
  I   I197      1.0  0.22330  0.27156  0.46123  1.0000
  I   I198      1.0  0.20204  0.27777  0.81593  1.0000
  I   I199      1.0  0.12589  0.61569  0.47026  1.0000
  I   I200      1.0  0.07278  0.67660  0.81942  1.0000
  I   I201      1.0  0.11709  0.65201  0.15939  1.0000
  I   I202      1.0  0.08209  0.91709  0.16111  1.0000
  I   I203      1.0  0.13698  0.87330  0.63197  1.0000
  I   I204      1.0  0.10164  0.87237  0.89590  1.0000
  I   I205      1.0  0.59608  0.04755  0.18345  1.0000
  I   I206      1.0  0.60978  0.02176  0.56878  1.0000
  I   I207      1.0  0.58676  0.08500  0.85155  1.0000
  I   I208      1.0  0.42946  0.33633  0.49073  1.0000
  I   I209      1.0  0.37326  0.39420  0.80677  1.0000
  I   I210      1.0  0.42473  0.34335  0.11156  1.0000
  I   I211      1.0  0.45965  0.71384  0.48310  1.0000
  I   I212      1.0  0.33809  0.67745  0.72897  1.0000
  I   I213      1.0  0.32984  0.64407  0.18866  1.0000
  I   I214      1.0  0.19708  0.94608  0.87069  1.0000
  I   I215      1.0  0.48448  0.84794  0.20083  1.0000
  I   I216      1.0  0.45821  0.86435  0.91008  1.0000
  I   I217      1.0  0.69085  0.19130  0.40030  1.0000
  I   I218      1.0  0.69991  0.20524  0.80981  1.0000
  I   I219      1.0  0.66569  0.20712  0.07591  1.0000
  I   I220      1.0  0.65689  0.41378  0.05607  1.0000
  I   I221      1.0  0.67046  0.40111  0.40025  1.0000
  I   I222      1.0  0.67387  0.39947  0.79230  1.0000
  I   I223      1.0  0.70875  0.59443  0.09851  1.0000
  I   I224      1.0  0.74765  0.55828  0.46177  1.0000
  I   I225      1.0  0.77090  0.48527  0.82162  1.0000
  I   I226      1.0  0.75920  0.76033  0.22282  1.0000
  I   I227      1.0  0.75356  0.72751  0.57278  1.0000
  I   I228      1.0  0.77867  0.70563  0.92789  1.0000
  I   I229      1.0  0.89154  0.05188  0.17487  1.0000
  I   I230      1.0  0.90032  0.04647  0.56312  1.0000
  I   I231      1.0  0.88338  0.05062  0.89320  1.0000
  I   I232      1.0  0.99792  0.30444  0.92996  1.0000
  I   I233      1.0  0.06773  0.20767  0.30372  1.0000
  I   I234      1.0  0.10443  0.21781  0.63045  1.0000
  I   I235      1.0  0.00519  0.54413  0.21449  1.0000
  I   I236      1.0  0.99823  0.51058  0.55898  1.0000
  I   I237      1.0  0.99311  0.54853  0.84268  1.0000
  I   I238      1.0  0.82014  0.92473  0.20390  1.0000
  I   I239      1.0  0.83377  0.95125  0.51710  1.0000
  I   I240      1.0  0.83362  0.93303  0.91823  1.0000
  I   I241      1.0  0.37983  0.01761  0.97520  1.0000
  I   I242      1.0  0.30471  0.00816  0.33753  1.0000
  I   I243      1.0  0.38516  0.03519  0.63300  1.0000
  I   I244      1.0  0.12479  0.30683  0.25549  1.0000
  I   I245      1.0  0.15457  0.27860  0.56659  1.0000
  I   I246      1.0  0.13197  0.29807  0.92570  1.0000
  I   I247      1.0  0.04642  0.59640  0.57023  1.0000
  I   I248      1.0  0.06669  0.59411  0.87027  1.0000
  I   I249      1.0  0.09647  0.57392  0.20830  1.0000
  I   I250      1.0  0.12690  0.86012  0.30620  1.0000
  I   I251      1.0  0.14271  0.80074  0.71785  1.0000
  I   I252      1.0  0.11165  0.78361  0.97157  1.0000
  I   I253      1.0  0.56493  0.99022  0.26945  1.0000
  I   I254      1.0  0.54819  0.98359  0.64847  1.0000
  I   I255      1.0  0.58230  0.02308  0.96489  1.0000
  I   I256      1.0  0.35545  0.32685  0.58670  1.0000
  I   I257      1.0  0.27785  0.40010  0.86973  1.0000
  I   I258      1.0  0.39373  0.27991  0.13927  1.0000
  I   I259      1.0  0.46706  0.62751  0.51033  1.0000
  I   I260      1.0  0.39811  0.64440  0.89251  1.0000
  I   I261      1.0  0.37902  0.60225  0.32937  1.0000
  I   I262      1.0  0.21398  0.89727  0.70933  1.0000
  I   I263      1.0  0.40243  0.93600  0.23958  1.0000
  I   I264      1.0  0.47611  0.77075  0.86577  1.0000
  I   I265      1.0  0.65180  0.14550  0.51239  1.0000
  I   I266      1.0  0.65013  0.15723  0.89248  1.0000
  I   I267      1.0  0.62160  0.14937  0.14907  1.0000
  I   I268      1.0  0.62854  0.35011  0.14037  1.0000
  I   I269      1.0  0.64743  0.33569  0.48582  1.0000
  I   I270      1.0  0.64205  0.35168  0.86860  1.0000
  I   I271      1.0  0.71744  0.51323  0.20155  1.0000
  I   I272      1.0  0.74449  0.47033  0.47484  1.0000
  I   I273      1.0  0.71496  0.46569  0.92273  1.0000
  I   I274      1.0  0.74797  0.69330  0.32681  1.0000
  I   I275      1.0  0.71811  0.68645  0.68166  1.0000
  I   I276      1.0  0.71804  0.68273  0.02068  1.0000
  I   I277      1.0  0.81375  0.07872  0.28351  1.0000
  I   I278      1.0  0.80170  0.10582  0.62960  1.0000
  I   I279      1.0  0.79860  0.08223  0.98613  1.0000
  I   I280      1.0  0.99901  0.22688  0.03528  1.0000
  I   I281      1.0  0.00684  0.18438  0.38241  1.0000
  I   I282      1.0  0.02875  0.23437  0.75771  1.0000
  I   I283      1.0  0.98550  0.46660  0.29522  1.0000
  I   I284      1.0  0.95056  0.47194  0.62879  1.0000
  I   I285      1.0  0.97291  0.48465  0.92230  1.0000
  I   I286      1.0  0.81290  0.84269  0.28682  1.0000
  I   I287      1.0  0.85974  0.86676  0.60895  1.0000
  I   I288      1.0  0.81307  0.86488  0.97899  1.0000
  I   I289      1.0  0.28498  0.06277  0.87866  1.0000
  I   I290      1.0  0.12002  0.12816  0.15256  1.0000
  I   I291      1.0  0.20663  0.05835  0.59926  1.0000
  I   I292      1.0  0.07651  0.42984  0.08875  1.0000
  I   I293      1.0  0.09819  0.44256  0.45951  1.0000
  I   I294      1.0  0.06847  0.42679  0.72086  1.0000
  I   I295      1.0  0.94499  0.69435  0.38564  1.0000
  I   I296      1.0  0.89630  0.74164  0.73952  1.0000
  I   I297      1.0  0.94049  0.70181  0.12022  1.0000
  I   I298      1.0  0.97992  0.83078  0.16023  1.0000
  I   I299      1.0  0.96476  0.90391  0.47033  1.0000
  I   I300      1.0  0.95317  0.86401  0.80425  1.0000
  I   I301      1.0  0.40874  0.13174  0.10654  1.0000
  I   I302      1.0  0.43744  0.10944  0.47072  1.0000
  I   I303      1.0  0.42014  0.12401  0.79482  1.0000
  I   I304      1.0  0.27032  0.41537  0.35163  1.0000
  I   I305      1.0  0.24118  0.50371  0.61597  1.0000
  I   I306      1.0  0.23182  0.50534  0.02149  1.0000
  I   I307      1.0  0.28892  0.74619  0.55578  1.0000
  I   I308      1.0  0.27325  0.59869  0.78877  1.0000
  I   I309      1.0  0.14903  0.73086  0.28138  1.0000
  I   I310      1.0  0.30743  0.91759  0.70382  1.0000
  I   I311      1.0  0.33794  0.82653  0.09383  1.0000
  I   I312      1.0  0.45110  0.98472  0.13554  1.0000
  I   I313      1.0  0.49674  0.27244  0.34811  1.0000
  I   I314      1.0  0.52879  0.26492  0.68085  1.0000
  I   I315      1.0  0.48407  0.28045  0.96727  1.0000
  I   I316      1.0  0.47233  0.48099  0.00028  1.0000
  I   I317      1.0  0.49938  0.44930  0.33384  1.0000
  I   I318      1.0  0.49511  0.47039  0.67162  1.0000
  I   I319      1.0  0.57127  0.59856  0.02729  1.0000
  I   I320      1.0  0.56956  0.57723  0.37400  1.0000
  I   I321      1.0  0.60298  0.58759  0.69928  1.0000
  I   I322      1.0  0.59680  0.79944  0.16076  1.0000
  I   I323      1.0  0.57623  0.81795  0.46294  1.0000
  I   I324      1.0  0.59718  0.79267  0.85879  1.0000
  I   I325      1.0  0.78450  0.23056  0.11894  1.0000
  I   I326      1.0  0.81027  0.23004  0.44906  1.0000
  I   I327      1.0  0.78270  0.23101  0.77880  1.0000
  I   I328      1.0  0.86731  0.40775  0.89821  1.0000
  I   I329      1.0  0.89850  0.34574  0.28523  1.0000
  I   I330      1.0  0.90153  0.31323  0.58525  1.0000
  I   I331      1.0  0.82426  0.61479  0.09182  1.0000
  I   I332      1.0  0.82833  0.58223  0.45106  1.0000
  I   I333      1.0  0.81970  0.57236  0.77202  1.0000
  I   I334      1.0  0.66472  0.93870  0.11727  1.0000
  I   I335      1.0  0.68936  0.91649  0.48190  1.0000
  I   I336      1.0  0.68819  0.93457  0.76988  1.0000
  I   I337      1.0  0.22376  0.12605  0.77157  1.0000
  I   I338      1.0  0.19607  0.15319  0.11397  1.0000
  I   I339      1.0  0.17131  0.13064  0.48716  1.0000
  I   I340      1.0  0.14498  0.44516  0.99589  1.0000
  I   I341      1.0  0.15219  0.46229  0.33685  1.0000
  I   I342      1.0  0.16519  0.43039  0.65931  1.0000
  I   I343      1.0  0.97740  0.75166  0.30625  1.0000
  I   I344      1.0  0.96415  0.74707  0.62496  1.0000
  I   I345      1.0  0.94723  0.76482  0.01435  1.0000
  I   I346      1.0  0.94502  0.91974  0.07736  1.0000
  I   I347      1.0  0.93505  0.97522  0.35032  1.0000
  I   I348      1.0  0.95061  0.94239  0.73216  1.0000
  I   I349      1.0  0.45271  0.18153  0.04140  1.0000
  I   I350      1.0  0.47899  0.15713  0.38699  1.0000
  I   I351      1.0  0.44456  0.17231  0.68301  1.0000
  I   I352      1.0  0.32547  0.41680  0.20881  1.0000
  I   I353      1.0  0.31393  0.50976  0.55406  1.0000
  I   I354      1.0  0.18747  0.58573  0.89163  1.0000
  I   I355      1.0  0.26456  0.78478  0.39157  1.0000
  I   I356      1.0  0.25829  0.66275  0.65080  1.0000
  I   I357      1.0  0.21928  0.65569  0.17290  1.0000
  I   I358      1.0  0.37707  0.92593  0.78194  1.0000
  I   I359      1.0  0.40228  0.77396  0.22923  1.0000
  I   I360      1.0  0.53483  0.89156  0.09069  1.0000
  I   I361      1.0  0.53933  0.32572  0.28134  1.0000
  I   I362      1.0  0.57524  0.31192  0.58827  1.0000
  I   I363      1.0  0.52810  0.33551  0.90151  1.0000
  I   I364      1.0  0.51671  0.53180  0.91661  1.0000
  I   I365      1.0  0.52568  0.51284  0.24782  1.0000
  I   I366      1.0  0.53907  0.51824  0.57385  1.0000
  I   I367      1.0  0.61397  0.64501  0.91608  1.0000
  I   I368      1.0  0.54968  0.65741  0.26622  1.0000
  I   I369      1.0  0.66716  0.60259  0.58438  1.0000
  I   I370      1.0  0.63926  0.86205  0.06701  1.0000
  I   I371      1.0  0.62195  0.86814  0.39378  1.0000
  I   I372      1.0  0.62602  0.84849  0.73456  1.0000
  I   I373      1.0  0.87634  0.19701  0.04009  1.0000
  I   I374      1.0  0.89843  0.18728  0.35827  1.0000
  I   I375      1.0  0.88154  0.19009  0.71091  1.0000
  I   I376      1.0  0.95856  0.38991  0.83214  1.0000
  I   I377      1.0  0.94589  0.38571  0.19796  1.0000
  I   I378      1.0  0.94323  0.34443  0.46611  1.0000
  I   I379      1.0  0.86288  0.66243  0.99930  1.0000
  I   I380      1.0  0.85476  0.64345  0.37523  1.0000
  I   I381      1.0  0.83603  0.64149  0.69254  1.0000
  I   I382      1.0  0.67124  0.02896  0.04309  1.0000
  I   I383      1.0  0.66860  0.99519  0.38384  1.0000
  I   I384      1.0  0.68780  0.01892  0.70165  1.0000
