data_image0
_chemical_formula_structural       Ti96I384
_chemical_formula_sum              "Ti96 I384"
_cell_length_a       73.7013
_cell_length_b       73.6528
_cell_length_c       36.0326
_cell_angle_alpha    88.7757
_cell_angle_beta     88.7757
_cell_angle_gamma    62.1586

_space_group_name_H-M_alt    "P 1"
_space_group_IT_number       1

loop_
  _space_group_symop_operation_xyz
  'x, y, z'

loop_
  _atom_site_type_symbol
  _atom_site_label
  _atom_site_symmetry_multiplicity
  _atom_site_fract_x
  _atom_site_fract_y
  _atom_site_fract_z
  _atom_site_occupancy
  Ti  Ti1       1.0  0.71675  0.34395  0.87237  1.0000
  Ti  Ti2       1.0  0.39903  0.74518  0.34320  1.0000
  Ti  Ti3       1.0  0.21488  0.99289  0.16447  1.0000
  Ti  Ti4       1.0  0.10490  0.19682  0.86935  1.0000
  Ti  Ti5       1.0  0.43410  0.84725  0.59780  1.0000
  Ti  Ti6       1.0  0.37013  0.31903  0.46236  1.0000
  Ti  Ti7       1.0  0.53928  0.66755  0.87914  1.0000
  Ti  Ti8       1.0  0.26032  0.60025  0.54148  1.0000
  Ti  Ti9       1.0  0.33559  0.28539  0.69344  1.0000
  Ti  Ti10      1.0  0.61174  0.63310  0.23054  1.0000
  Ti  Ti11      1.0  0.20917  0.11234  0.18442  1.0000
  Ti  Ti12      1.0  0.86357  0.06208  0.86386  1.0000
  Ti  Ti13      1.0  0.85198  0.77903  0.47360  1.0000
  Ti  Ti14      1.0  0.05004  0.22697  0.90300  1.0000
  Ti  Ti15      1.0  0.80970  0.64086  0.55144  1.0000
  Ti  Ti16      1.0  0.20106  0.40955  0.54526  1.0000
  Ti  Ti17      1.0  0.07953  0.12239  0.28661  1.0000
  Ti  Ti18      1.0  0.16379  0.33152  0.73507  1.0000
  Ti  Ti19      1.0  0.04757  0.87679  0.17861  1.0000
  Ti  Ti20      1.0  0.25262  0.68897  0.73203  1.0000
  Ti  Ti21      1.0  0.28797  0.54552  0.47785  1.0000
  Ti  Ti22      1.0  0.00165  0.20659  0.57150  1.0000
  Ti  Ti23      1.0  0.04403  0.98552  0.41307  1.0000
  Ti  Ti24      1.0  0.76424  0.14973  0.20697  1.0000
  Ti  Ti25      1.0  0.58859  0.54091  0.25454  1.0000
  Ti  Ti26      1.0  0.60512  0.97070  0.94527  1.0000
  Ti  Ti27      1.0  0.63152  0.34419  0.32344  1.0000
  Ti  Ti28      1.0  0.30570  0.07408  0.46954  1.0000
  Ti  Ti29      1.0  0.36014  0.74298  0.05436  1.0000
  Ti  Ti30      1.0  0.49953  0.90828  0.33277  1.0000
  Ti  Ti31      1.0  0.21592  0.93428  0.38642  1.0000
  Ti  Ti32      1.0  0.49925  0.77093  0.82829  1.0000
  Ti  Ti33      1.0  0.40474  0.53440  0.95348  1.0000
  Ti  Ti34      1.0  0.65459  0.58031  0.48735  1.0000
  Ti  Ti35      1.0  0.05649  0.55581  0.53496  1.0000
  Ti  Ti36      1.0  0.71617  0.20030  0.33544  1.0000
  Ti  Ti37      1.0  0.89556  0.94030  0.77933  1.0000
  Ti  Ti38      1.0  0.50816  0.06995  0.50328  1.0000
  Ti  Ti39      1.0  0.83782  0.67840  0.93294  1.0000
  Ti  Ti40      1.0  0.57824  0.74940  0.57204  1.0000
  Ti  Ti41      1.0  0.75169  0.41906  0.04508  1.0000
  Ti  Ti42      1.0  0.03948  0.39160  0.13053  1.0000
  Ti  Ti43      1.0  0.80260  0.90141  0.49083  1.0000
  Ti  Ti44      1.0  0.78109  0.44238  0.10073  1.0000
  Ti  Ti45      1.0  0.18827  0.22206  0.35447  1.0000
  Ti  Ti46      1.0  0.45705  0.95667  0.12082  1.0000
  Ti  Ti47      1.0  0.23055  0.94268  0.89798  1.0000
  Ti  Ti48      1.0  0.11244  0.08915  0.97967  1.0000
  Ti  Ti49      1.0  0.77940  0.88879  0.24165  1.0000
  Ti  Ti50      1.0  0.05510  0.24138  0.32485  1.0000
  Ti  Ti51      1.0  0.36057  0.75279  0.43155  1.0000
  Ti  Ti52      1.0  0.86265  0.43962  0.54344  1.0000
  Ti  Ti53      1.0  0.95035  0.79698  0.20981  1.0000
  Ti  Ti54      1.0  0.81109  0.03579  0.65452  1.0000
  Ti  Ti55      1.0  0.57449  0.72310  0.85910  1.0000
  Ti  Ti56      1.0  0.16040  0.04537  0.62254  1.0000
  Ti  Ti57      1.0  0.31381  0.29343  0.62502  1.0000
  Ti  Ti58      1.0  0.40981  0.56845  0.47604  1.0000
  Ti  Ti59      1.0  0.46814  0.31860  0.79807  1.0000
  Ti  Ti60      1.0  0.86370  0.08763  0.76202  1.0000
  Ti  Ti61      1.0  0.78189  0.67856  0.60004  1.0000
  Ti  Ti62      1.0  0.79362  0.81530  0.48944  1.0000
  Ti  Ti63      1.0  0.19564  0.61331  0.01832  1.0000
  Ti  Ti64      1.0  0.18381  0.35359  0.70583  1.0000
  Ti  Ti65      1.0  0.12186  0.75713  0.48449  1.0000
  Ti  Ti66      1.0  0.30968  0.46229  0.63535  1.0000
  Ti  Ti67      1.0  0.00641  0.43768  0.53241  1.0000
  Ti  Ti68      1.0  0.78446  0.04504  0.35313  1.0000
  Ti  Ti69      1.0  0.62030  0.88169  0.29323  1.0000
  Ti  Ti70      1.0  0.02276  0.38004  0.44476  1.0000
  Ti  Ti71      1.0  0.10154  0.98655  0.39426  1.0000
  Ti  Ti72      1.0  0.29533  0.90539  0.87752  1.0000
  Ti  Ti73      1.0  0.67047  0.36603  0.33183  1.0000
  Ti  Ti74      1.0  0.55551  0.52444  0.33007  1.0000
  Ti  Ti75      1.0  0.42960  0.09702  0.90980  1.0000
  Ti  Ti76      1.0  0.33083  0.08417  0.37759  1.0000
  Ti  Ti77      1.0  0.94465  0.75349  0.70960  1.0000
  Ti  Ti78      1.0  0.31416  0.78421  0.10806  1.0000
  Ti  Ti79      1.0  0.61838  0.24120  0.66252  1.0000
  Ti  Ti80      1.0  0.12660  0.29743  0.21094  1.0000
  Ti  Ti81      1.0  0.42838  0.78720  0.81466  1.0000
  Ti  Ti82      1.0  0.91711  0.34901  0.29762  1.0000
  Ti  Ti83      1.0  0.02268  0.58306  0.59315  1.0000
  Ti  Ti84      1.0  0.66305  0.20052  0.33750  1.0000
  Ti  Ti85      1.0  0.93990  0.94251  0.71848  1.0000
  Ti  Ti86      1.0  0.57453  0.43666  0.00880  1.0000
  Ti  Ti87      1.0  0.21015  0.25237  0.36685  1.0000
  Ti  Ti88      1.0  0.81173  0.57619  0.37220  1.0000
  Ti  Ti89      1.0  0.46105  0.41191  0.16216  1.0000
  Ti  Ti90      1.0  0.98220  0.41063  0.19815  1.0000
  Ti  Ti91      1.0  0.19709  0.76499  0.17017  1.0000
  Ti  Ti92      1.0  0.53782  0.84485  0.11653  1.0000
  Ti  Ti93      1.0  0.94339  0.09655  0.36037  1.0000
  Ti  Ti94      1.0  0.09555  0.08654  0.90504  1.0000
  Ti  Ti95      1.0  0.00543  0.53783  0.87646  1.0000
  Ti  Ti96      1.0  0.04417  0.20010  0.69187  1.0000
  I   I1        1.0  0.32301  0.86836  0.88089  1.0000
  I   I2        1.0  0.34883  0.72469  0.39930  1.0000
  I   I3        1.0  0.80752  0.87947  0.19376  1.0000
  I   I4        1.0  0.97787  0.75980  0.20021  1.0000
  I   I5        1.0  0.38511  0.29300  0.51263  1.0000
  I   I6        1.0  0.78874  0.03284  0.59615  1.0000
  I   I7        1.0  0.27047  0.58164  0.60376  1.0000
  I   I8        1.0  0.12661  0.04673  0.64267  1.0000
  I   I9        1.0  0.27839  0.32092  0.62845  1.0000
  I   I10       1.0  0.59092  0.64065  0.28910  1.0000
  I   I11       1.0  0.21309  0.14080  0.22715  1.0000
  I   I12       1.0  0.44600  0.87480  0.57536  1.0000
  I   I13       1.0  0.88404  0.75071  0.50919  1.0000
  I   I14       1.0  0.17845  0.64180  0.06557  1.0000
  I   I15       1.0  0.80200  0.62151  0.61253  1.0000
  I   I16       1.0  0.58317  0.65484  0.17947  1.0000
  I   I17       1.0  0.33525  0.47659  0.63267  1.0000
  I   I18       1.0  0.20036  0.30365  0.75293  1.0000
  I   I19       1.0  0.23001  0.67989  0.77237  1.0000
  I   I20       1.0  0.17300  0.11630  0.19662  1.0000
  I   I21       1.0  0.26464  0.63656  0.53845  1.0000
  I   I22       1.0  0.00262  0.01572  0.39120  1.0000
  I   I23       1.0  0.10787  0.95888  0.34781  1.0000
  I   I24       1.0  0.04122  0.44641  0.51903  1.0000
  I   I25       1.0  0.60964  0.55212  0.30277  1.0000
  I   I26       1.0  0.45724  0.06666  0.95398  1.0000
  I   I27       1.0  0.60030  0.35288  0.36614  1.0000
  I   I28       1.0  0.33219  0.04726  0.42590  1.0000
  I   I29       1.0  0.30411  0.80021  0.17475  1.0000
  I   I30       1.0  0.47610  0.94344  0.36730  1.0000
  I   I31       1.0  0.15688  0.25917  0.21743  1.0000
  I   I32       1.0  0.46153  0.76479  0.78048  1.0000
  I   I33       1.0  0.62834  0.22060  0.59927  1.0000
  I   I34       1.0  0.09380  0.53836  0.56224  1.0000
  I   I35       1.0  0.66422  0.21234  0.27028  1.0000
  I   I36       1.0  0.62145  0.59415  0.52962  1.0000
  I   I37       1.0  0.88559  0.91844  0.73480  1.0000
  I   I38       1.0  0.80027  0.68946  0.92131  1.0000
  I   I39       1.0  0.88757  0.93119  0.85143  1.0000
  I   I40       1.0  0.79006  0.42514  0.03333  1.0000
  I   I41       1.0  0.01544  0.37938  0.19739  1.0000
  I   I42       1.0  0.59264  0.77521  0.55833  1.0000
  I   I43       1.0  0.43965  0.57001  0.43926  1.0000
  I   I44       1.0  0.77295  0.47190  0.15045  1.0000
  I   I45       1.0  0.19673  0.27775  0.42694  1.0000
  I   I46       1.0  0.96712  0.57154  0.88706  1.0000
  I   I47       1.0  0.19947  0.98021  0.89940  1.0000
  I   I48       1.0  0.14528  0.07555  0.03050  1.0000
  I   I49       1.0  0.74276  0.89914  0.22274  1.0000
  I   I50       1.0  0.37755  0.75394  0.28042  1.0000
  I   I51       1.0  0.43199  0.75032  0.33279  1.0000
  I   I52       1.0  0.08965  0.30155  0.19786  1.0000
  I   I53       1.0  0.96775  0.81989  0.19572  1.0000
  I   I54       1.0  0.80141  0.07342  0.65048  1.0000
  I   I55       1.0  0.52689  0.67102  0.80724  1.0000
  I   I56       1.0  0.26578  0.53741  0.42967  1.0000
  I   I57       1.0  0.99264  0.50628  0.89335  1.0000
  I   I58       1.0  0.63592  0.65198  0.20209  1.0000
  I   I59       1.0  0.49059  0.32224  0.74077  1.0000
  I   I60       1.0  0.88933  0.04281  0.79687  1.0000
  I   I61       1.0  0.80472  0.82276  0.41655  1.0000
  I   I62       1.0  0.75743  0.81729  0.50783  1.0000
  I   I63       1.0  0.17339  0.59970  0.99325  1.0000
  I   I64       1.0  0.18708  0.38333  0.53773  1.0000
  I   I65       1.0  0.08919  0.78886  0.46532  1.0000
  I   I66       1.0  0.32429  0.43731  0.68941  1.0000
  I   I67       1.0  0.04571  0.88878  0.24479  1.0000
  I   I68       1.0  0.22568  0.71016  0.68355  1.0000
  I   I69       1.0  0.59143  0.89587  0.24103  1.0000
  I   I70       1.0  0.98894  0.37770  0.46240  1.0000
  I   I71       1.0  0.12482  0.00106  0.37153  1.0000
  I   I72       1.0  0.26666  0.89931  0.85756  1.0000
  I   I73       1.0  0.63774  0.36710  0.38083  1.0000
  I   I74       1.0  0.57437  0.99502  0.90417  1.0000
  I   I75       1.0  0.63076  0.98446  0.95683  1.0000
  I   I76       1.0  0.92598  0.76721  0.64370  1.0000
  I   I77       1.0  0.95139  0.77606  0.74977  1.0000
  I   I78       1.0  0.71849  0.31147  0.90828  1.0000
  I   I79       1.0  0.38760  0.51072  0.98025  1.0000
  I   I80       1.0  0.19707  0.95558  0.44629  1.0000
  I   I81       1.0  0.48371  0.75871  0.88293  1.0000
  I   I82       1.0  0.93349  0.31889  0.35050  1.0000
  I   I83       1.0  0.00890  0.61744  0.56071  1.0000
  I   I84       1.0  0.70214  0.16925  0.33564  1.0000
  I   I85       1.0  0.89501  0.95925  0.70764  1.0000
  I   I86       1.0  0.26608  0.47791  0.63273  1.0000
  I   I87       1.0  0.85798  0.64612  0.89078  1.0000
  I   I88       1.0  0.53792  0.77673  0.57975  1.0000
  I   I89       1.0  0.73956  0.45390  0.08825  1.0000
  I   I90       1.0  0.95340  0.40297  0.22405  1.0000
  I   I91       1.0  0.19632  0.79487  0.21185  1.0000
  I   I92       1.0  0.56467  0.84784  0.16324  1.0000
  I   I93       1.0  0.81138  0.45519  0.09080  1.0000
  I   I94       1.0  0.10767  0.07439  0.83921  1.0000
  I   I95       1.0  0.48342  0.93300  0.17647  1.0000
  I   I96       1.0  0.05692  0.22683  0.70450  1.0000
  I   I97       1.0  0.23283  0.98605  0.22957  1.0000
  I   I98       1.0  0.75270  0.33313  0.91403  1.0000
  I   I99       1.0  0.32438  0.77902  0.45698  1.0000
  I   I100      1.0  0.02689  0.20745  0.91122  1.0000
  I   I101      1.0  0.81589  0.57482  0.30111  1.0000
  I   I102      1.0  0.45310  0.81985  0.64626  1.0000
  I   I103      1.0  0.57147  0.64657  0.82962  1.0000
  I   I104      1.0  0.60514  0.70951  0.91948  1.0000
  I   I105      1.0  0.36455  0.27769  0.73638  1.0000
  I   I106      1.0  0.87104  0.07274  0.69401  1.0000
  I   I107      1.0  0.63002  0.59428  0.21904  1.0000
  I   I108      1.0  0.83603  0.06981  0.80934  1.0000
  I   I109      1.0  0.81632  0.67462  0.54329  1.0000
  I   I110      1.0  0.77814  0.85525  0.49230  1.0000
  I   I111      1.0  0.22800  0.58726  0.05276  1.0000
  I   I112      1.0  0.14157  0.37260  0.73325  1.0000
  I   I113      1.0  0.15379  0.76276  0.50223  1.0000
  I   I114      1.0  0.08595  0.13378  0.22026  1.0000
  I   I115      1.0  0.98005  0.47521  0.52112  1.0000
  I   I116      1.0  0.04018  0.38839  0.38895  1.0000
  I   I117      1.0  0.77322  0.08519  0.37250  1.0000
  I   I118      1.0  0.99846  0.24112  0.59758  1.0000
  I   I119      1.0  0.04289  0.34047  0.43629  1.0000
  I   I120      1.0  0.30927  0.92222  0.82861  1.0000
  I   I121      1.0  0.67688  0.39048  0.28905  1.0000
  I   I122      1.0  0.62248  0.51527  0.22273  1.0000
  I   I123      1.0  0.42195  0.08679  0.84696  1.0000
  I   I124      1.0  0.52582  0.88643  0.38385  1.0000
  I   I125      1.0  0.29182  0.08118  0.38547  1.0000
  I   I126      1.0  0.31918  0.77637  0.02391  1.0000
  I   I127      1.0  0.43941  0.51961  0.98828  1.0000
  I   I128      1.0  0.07397  0.24372  0.87334  1.0000
  I   I129      1.0  0.41249  0.82269  0.77906  1.0000
  I   I130      1.0  0.78877  0.16511  0.21273  1.0000
  I   I131      1.0  0.90447  0.37948  0.23550  1.0000
  I   I132      1.0  0.01424  0.57102  0.52354  1.0000
  I   I133      1.0  0.85303  0.66494  0.99917  1.0000
  I   I134      1.0  0.55152  0.04406  0.51311  1.0000
  I   I135      1.0  0.31948  0.43672  0.57813  1.0000
  I   I136      1.0  0.97498  0.40963  0.12660  1.0000
  I   I137      1.0  0.82408  0.45843  0.51176  1.0000
  I   I138      1.0  0.44528  0.44850  0.18666  1.0000
  I   I139      1.0  0.19397  0.77694  0.10072  1.0000
  I   I140      1.0  0.50475  0.85089  0.15117  1.0000
  I   I141      1.0  0.94277  0.06415  0.33573  1.0000
  I   I142      1.0  0.14230  0.07912  0.91556  1.0000
  I   I143      1.0  0.18060  0.99391  0.18739  1.0000
  I   I144      1.0  0.04241  0.19499  0.61849  1.0000
  I   I145      1.0  0.69042  0.37173  0.91437  1.0000
  I   I146      1.0  0.41966  0.70583  0.34805  1.0000
  I   I147      1.0  0.23372  0.96768  0.11176  1.0000
  I   I148      1.0  0.88240  0.45590  0.50822  1.0000
  I   I149      1.0  0.44717  0.82092  0.54435  1.0000
  I   I150      1.0  0.37905  0.34933  0.46284  1.0000
  I   I151      1.0  0.57802  0.75448  0.84702  1.0000
  I   I152      1.0  0.26759  0.58969  0.45533  1.0000
  I   I153      1.0  0.36053  0.25141  0.64123  1.0000
  I   I154      1.0  0.78886  0.89056  0.43447  1.0000
  I   I155      1.0  0.23163  0.07096  0.18326  1.0000
  I   I156      1.0  0.84644  0.09571  0.91024  1.0000
  I   I157      1.0  0.81074  0.61367  0.49169  1.0000
  I   I158      1.0  0.21156  0.62109  0.95749  1.0000
  I   I159      1.0  0.76782  0.71693  0.58430  1.0000
  I   I160      1.0  0.20261  0.35543  0.75823  1.0000
  I   I161      1.0  0.11264  0.09924  0.32450  1.0000
  I   I162      1.0  0.13199  0.32791  0.76308  1.0000
  I   I163      1.0  0.03775  0.84884  0.19990  1.0000
  I   I164      1.0  0.82373  0.03015  0.34077  1.0000
  I   I165      1.0  0.32064  0.55086  0.50214  1.0000
  I   I166      1.0  0.03305  0.18413  0.52398  1.0000
  I   I167      1.0  0.02431  0.97304  0.46346  1.0000
  I   I168      1.0  0.78085  0.11397  0.23153  1.0000
  I   I169      1.0  0.55791  0.55755  0.31047  1.0000
  I   I170      1.0  0.52654  0.54110  0.37808  1.0000
  I   I171      1.0  0.65825  0.30602  0.34955  1.0000
  I   I172      1.0  0.31757  0.06549  0.53303  1.0000
  I   I173      1.0  0.39505  0.73477  0.07472  1.0000
  I   I174      1.0  0.46583  0.91155  0.30058  1.0000
  I   I175      1.0  0.20113  0.90976  0.38015  1.0000
  I   I176      1.0  0.53477  0.75000  0.87079  1.0000
  I   I177      1.0  0.64866  0.24638  0.69635  1.0000
  I   I178      1.0  0.94119  0.33312  0.23636  1.0000
  I   I179      1.0  0.05380  0.54076  0.62050  1.0000
  I   I180      1.0  0.63541  0.24120  0.34729  1.0000
  I   I181      1.0  0.93989  0.92074  0.66031  1.0000
  I   I182      1.0  0.57154  0.43354  0.93937  1.0000
  I   I183      1.0  0.15042  0.23151  0.32769  1.0000
  I   I184      1.0  0.77882  0.58505  0.40962  1.0000
  I   I185      1.0  0.47044  0.38893  0.22028  1.0000
  I   I186      1.0  0.03677  0.36185  0.09946  1.0000
  I   I187      1.0  0.53405  0.86639  0.05895  1.0000
  I   I188      1.0  0.80058  0.40818  0.13824  1.0000
  I   I189      1.0  0.18476  0.21897  0.42387  1.0000
  I   I190      1.0  0.43568  0.99443  0.14844  1.0000
  I   I191      1.0  0.05285  0.22919  0.39143  1.0000
  I   I192      1.0  0.05942  0.08344  0.90521  1.0000
  I   I193      1.0  0.36447  0.70558  0.04314  1.0000
  I   I194      1.0  0.04449  0.22609  0.27409  1.0000
  I   I195      1.0  0.21900  0.02806  0.14850  1.0000
  I   I196      1.0  0.12652  0.21320  0.84904  1.0000
  I   I197      1.0  0.40407  0.55663  0.54750  1.0000
  I   I198      1.0  0.38569  0.29589  0.40629  1.0000
  I   I199      1.0  0.56733  0.71320  0.79048  1.0000
  I   I200      1.0  0.17384  0.01452  0.58266  1.0000
  I   I201      1.0  0.30276  0.31409  0.72543  1.0000
  I   I202      1.0  0.44668  0.29926  0.77939  1.0000
  I   I203      1.0  0.60896  0.87323  0.36133  1.0000
  I   I204      1.0  0.87822  0.09037  0.83631  1.0000
  I   I205      1.0  0.83497  0.80894  0.52132  1.0000
  I   I206      1.0  0.02476  0.25355  0.85827  1.0000
  I   I207      1.0  0.84886  0.62376  0.54211  1.0000
  I   I208      1.0  0.20852  0.40857  0.61727  1.0000
  I   I209      1.0  0.06001  0.10087  0.28790  1.0000
  I   I210      1.0  0.61886  0.22248  0.72394  1.0000
  I   I211      1.0  0.99702  0.43032  0.46373  1.0000
  I   I212      1.0  0.28766  0.65468  0.70928  1.0000
  I   I213      1.0  0.60863  0.91840  0.32080  1.0000
  I   I214      1.0  0.97906  0.19377  0.61788  1.0000
  I   I215      1.0  0.04917  0.96818  0.34874  1.0000
  I   I216      1.0  0.72816  0.15817  0.17355  1.0000
  I   I217      1.0  0.57789  0.55766  0.18957  1.0000
  I   I218      1.0  0.42026  0.13508  0.92365  1.0000
  I   I219      1.0  0.63144  0.38085  0.28875  1.0000
  I   I220      1.0  0.97531  0.72525  0.67771  1.0000
  I   I221      1.0  0.33709  0.74305  0.11826  1.0000
  I   I222      1.0  0.31459  0.10629  0.44448  1.0000
  I   I223      1.0  0.19665  0.95208  0.32793  1.0000
  I   I224      1.0  0.48737  0.80994  0.83304  1.0000
  I   I225      1.0  0.42087  0.52489  0.88461  1.0000
  I   I226      1.0  0.88232  0.34498  0.29408  1.0000
  I   I227      1.0  0.05783  0.52939  0.48022  1.0000
  I   I228      1.0  0.67898  0.21701  0.39044  1.0000
  I   I229      1.0  0.04985  0.15126  0.32222  1.0000
  I   I230      1.0  0.52056  0.09872  0.50200  1.0000
  I   I231      1.0  0.83327  0.71553  0.90702  1.0000
  I   I232      1.0  0.04334  0.24717  0.96436  1.0000
  I   I233      1.0  0.76712  0.38429  0.00865  1.0000
  I   I234      1.0  0.07755  0.37568  0.11289  1.0000
  I   I235      1.0  0.82757  0.88056  0.54453  1.0000
  I   I236      1.0  0.92735  0.13021  0.32263  1.0000
  I   I237      1.0  0.16500  0.76261  0.20442  1.0000
  I   I238      1.0  0.01359  0.56902  0.86803  1.0000
  I   I239      1.0  0.07501  0.16443  0.71093  1.0000
  I   I240      1.0  0.07832  0.09816  0.02041  1.0000
  I   I241      1.0  0.69658  0.34413  0.81607  1.0000
  I   I242      1.0  0.36288  0.77265  0.36806  1.0000
  I   I243      1.0  0.47469  0.96866  0.06297  1.0000
  I   I244      1.0  0.82451  0.60277  0.39082  1.0000
  I   I245      1.0  0.91713  0.80886  0.17211  1.0000
  I   I246      1.0  0.33267  0.33282  0.45377  1.0000
  I   I247      1.0  0.52152  0.69837  0.92886  1.0000
  I   I248      1.0  0.21902  0.62994  0.53597  1.0000
  I   I249      1.0  0.33542  0.31411  0.64667  1.0000
  I   I250      1.0  0.49177  0.29172  0.84314  1.0000
  I   I251      1.0  0.21141  0.14217  0.13724  1.0000
  I   I252      1.0  0.87831  0.02256  0.88785  1.0000
  I   I253      1.0  0.87410  0.79643  0.44116  1.0000
  I   I254      1.0  0.12627  0.15657  0.87664  1.0000
  I   I255      1.0  0.81480  0.66898  0.63571  1.0000
  I   I256      1.0  0.12431  0.73104  0.43906  1.0000
  I   I257      1.0  0.97103  0.94651  0.71584  1.0000
  I   I258      1.0  0.21635  0.32818  0.66280  1.0000
  I   I259      1.0  0.03431  0.38436  0.51178  1.0000
  I   I260      1.0  0.77610  0.03030  0.29425  1.0000
  I   I261      1.0  0.29717  0.51091  0.50819  1.0000
  I   I262      1.0  0.97527  0.21307  0.51813  1.0000
  I   I263      1.0  0.05802  0.01478  0.37803  1.0000
  I   I264      1.0  0.73905  0.17712  0.28117  1.0000
  I   I265      1.0  0.59036  0.50101  0.27528  1.0000
  I   I266      1.0  0.61898  0.93790  0.90073  1.0000
  I   I267      1.0  0.69151  0.35786  0.39030  1.0000
  I   I268      1.0  0.26819  0.07777  0.47736  1.0000
  I   I269      1.0  0.27638  0.79077  0.08703  1.0000
  I   I270      1.0  0.32149  0.11911  0.34105  1.0000
  I   I271      1.0  0.25481  0.92341  0.38085  1.0000
  I   I272      1.0  0.42777  0.80502  0.87402  1.0000
  I   I273      1.0  0.39936  0.57323  0.94268  1.0000
  I   I274      1.0  0.65813  0.55941  0.42695  1.0000
  I   I275      1.0  0.05068  0.58729  0.48808  1.0000
  I   I276      1.0  0.64681  0.17709  0.33431  1.0000
  I   I277      1.0  0.91088  0.37013  0.35613  1.0000
  I   I278      1.0  0.47830  0.08147  0.54822  1.0000
  I   I279      1.0  0.21051  0.18311  0.33159  1.0000
  I   I280      1.0  0.86129  0.44787  0.61230  1.0000
  I   I281      1.0  0.75627  0.40104  0.11830  1.0000
  I   I282      1.0  0.04310  0.40962  0.19675  1.0000
  I   I283      1.0  0.83821  0.88813  0.44167  1.0000
  I   I284      1.0  0.92040  0.11062  0.42422  1.0000
  I   I285      1.0  0.21717  0.22740  0.30476  1.0000
  I   I286      1.0  0.00695  0.52741  0.80951  1.0000
  I   I287      1.0  0.21110  0.92857  0.94053  1.0000
  I   I288      1.0  0.10965  0.12722  0.99124  1.0000
  I   I289      1.0  0.78733  0.91142  0.29555  1.0000
  I   I290      1.0  0.03365  0.28210  0.30103  1.0000
  I   I291      1.0  0.37298  0.72729  0.48946  1.0000
  I   I292      1.0  0.87146  0.40044  0.53009  1.0000
  I   I293      1.0  0.94289  0.79148  0.28453  1.0000
  I   I294      1.0  0.84621  0.02401  0.69296  1.0000
  I   I295      1.0  0.54447  0.63141  0.90118  1.0000
  I   I296      1.0  0.14772  0.07199  0.56741  1.0000
  I   I297      1.0  0.31314  0.26280  0.67689  1.0000
  I   I298      1.0  0.38990  0.55462  0.43898  1.0000
  I   I299      1.0  0.22956  0.40419  0.50306  1.0000
  I   I300      1.0  0.96920  0.10334  0.38988  1.0000
  I   I301      1.0  0.76758  0.66898  0.53806  1.0000
  I   I302      1.0  0.85652  0.74903  0.42528  1.0000
  I   I303      1.0  0.58293  0.71809  0.53499  1.0000
  I   I304      1.0  0.17775  0.38966  0.68328  1.0000
  I   I305      1.0  0.16447  0.43978  0.53850  1.0000
  I   I306      1.0  0.58072  0.46516  0.03272  1.0000
  I   I307      1.0  0.02099  0.90566  0.13858  1.0000
  I   I308      1.0  0.26021  0.70857  0.78110  1.0000
  I   I309      1.0  0.25496  0.56382  0.53075  1.0000
  I   I310      1.0  0.76842  0.93004  0.52557  1.0000
  I   I311      1.0  0.06749  0.99210  0.46478  1.0000
  I   I312      1.0  0.31152  0.91167  0.94525  1.0000
  I   I313      1.0  0.69490  0.33224  0.29210  1.0000
  I   I314      1.0  0.52931  0.51887  0.28315  1.0000
  I   I315      1.0  0.39756  0.09913  0.94623  1.0000
  I   I316      1.0  0.33924  0.06920  0.30465  1.0000
  I   I317      1.0  0.36874  0.06920  0.38957  1.0000
  I   I318      1.0  0.34331  0.79379  0.08155  1.0000
  I   I319      1.0  0.59693  0.27978  0.70160  1.0000
  I   I320      1.0  0.08914  0.19386  0.94230  1.0000
  I   I321      1.0  0.52302  0.77286  0.76699  1.0000
  I   I322      1.0  0.68456  0.56072  0.53528  1.0000
  I   I323      1.0  0.99086  0.58839  0.62697  1.0000
  I   I324      1.0  0.70929  0.23513  0.29973  1.0000
  I   I325      1.0  0.92771  0.95281  0.78862  1.0000
  I   I326      1.0  0.53687  0.45348  0.02872  1.0000
  I   I327      1.0  0.22734  0.27183  0.32569  1.0000
  I   I328      1.0  0.59045  0.74267  0.64313  1.0000
  I   I329      1.0  0.47001  0.41828  0.08944  1.0000
  I   I330      1.0  0.97480  0.44349  0.22997  1.0000
  I   I331      1.0  0.23118  0.21363  0.39956  1.0000
  I   I332      1.0  0.39106  0.60828  0.47518  1.0000
  I   I333      1.0  0.71551  0.43037  0.02397  1.0000
  I   I334      1.0  0.11862  0.05248  0.94771  1.0000
  I   I335      1.0  0.44697  0.93295  0.07843  1.0000
  I   I336      1.0  0.00689  0.22323  0.71659  1.0000
  I   I337      1.0  0.79094  0.85256  0.27436  1.0000
  I   I338      1.0  0.09233  0.22828  0.30853  1.0000
  I   I339      1.0  0.40375  0.74171  0.42834  1.0000
  I   I340      1.0  0.12058  0.31054  0.28337  1.0000
  I   I341      1.0  0.39454  0.85659  0.61236  1.0000
  I   I342      1.0  0.79491  0.03397  0.71751  1.0000
  I   I343      1.0  0.56731  0.68863  0.88659  1.0000
  I   I344      1.0  0.16974  0.06638  0.67129  1.0000
  I   I345      1.0  0.32172  0.27931  0.55981  1.0000
  I   I346      1.0  0.98223  0.43271  0.58078  1.0000
  I   I347      1.0  0.45893  0.35396  0.82686  1.0000
  I   I348      1.0  0.87602  0.11477  0.75704  1.0000
  I   I349      1.0  0.75297  0.68644  0.64687  1.0000
  I   I350      1.0  0.81558  0.77240  0.49967  1.0000
  I   I351      1.0  0.07459  0.20373  0.81394  1.0000
  I   I352      1.0  0.16242  0.32453  0.66682  1.0000
  I   I353      1.0  0.10781  0.76092  0.55504  1.0000
  I   I354      1.0  0.59135  0.40039  0.04405  1.0000
  I   I355      1.0  0.08486  0.85694  0.15169  1.0000
  I   I356      1.0  0.75317  0.04859  0.39800  1.0000
  I   I357      1.0  0.61197  0.95119  0.00728  1.0000
  I   I358      1.0  0.78148  0.13806  0.13879  1.0000
  I   I359      1.0  0.12873  0.97139  0.44778  1.0000
  I   I360      1.0  0.25911  0.95362  0.89487  1.0000
  I   I361      1.0  0.62323  0.32698  0.26262  1.0000
  I   I362      1.0  0.58459  0.49618  0.37393  1.0000
  I   I363      1.0  0.65064  0.84747  0.26378  1.0000
  I   I364      1.0  0.51765  0.91633  0.28061  1.0000
  I   I365      1.0  0.91818  0.74734  0.74859  1.0000
  I   I366      1.0  0.36500  0.74823  0.98004  1.0000
  I   I367      1.0  0.57962  0.25679  0.64716  1.0000
  I   I368      1.0  0.13944  0.30389  0.14683  1.0000
  I   I369      1.0  0.40193  0.77269  0.81830  1.0000
  I   I370      1.0  0.66449  0.60950  0.47320  1.0000
  I   I371      1.0  0.04446  0.59407  0.63820  1.0000
  I   I372      1.0  0.74567  0.19385  0.37633  1.0000
  I   I373      1.0  0.93336  0.90582  0.76888  1.0000
  I   I374      1.0  0.49896  0.07242  0.43686  1.0000
  I   I375      1.0  0.17203  0.26460  0.34242  1.0000
  I   I376      1.0  0.84455  0.54133  0.38156  1.0000
  I   I377      1.0  0.42341  0.41723  0.13885  1.0000
  I   I378      1.0  0.03102  0.41512  0.07588  1.0000
  I   I379      1.0  0.22659  0.73150  0.18022  1.0000
  I   I380      1.0  0.56062  0.80585  0.10902  1.0000
  I   I381      1.0  0.82518  0.11232  0.74769  1.0000
  I   I382      1.0  0.07157  0.12654  0.90626  1.0000
  I   I383      1.0  0.02972  0.52891  0.93488  1.0000
  I   I384      1.0  0.21805  0.94094  0.82774  1.0000
