data_image0
_chemical_formula_structural       Ti96I384
_chemical_formula_sum              "Ti96 I384"
_cell_length_a       78.1267
_cell_length_b       78.1515
_cell_length_c       38.247
_cell_angle_alpha    88.7757
_cell_angle_beta     88.7757
_cell_angle_gamma    62.1586

_space_group_name_H-M_alt    "P 1"
_space_group_IT_number       1

loop_
  _space_group_symop_operation_xyz
  'x, y, z'

loop_
  _atom_site_type_symbol
  _atom_site_label
  _atom_site_symmetry_multiplicity
  _atom_site_fract_x
  _atom_site_fract_y
  _atom_site_fract_z
  _atom_site_occupancy
  Ti  Ti1       1.0  0.64055  0.76240  0.96227  1.0000
  Ti  Ti2       1.0  0.55201  0.84840  0.48470  1.0000
  Ti  Ti3       1.0  0.10479  0.10642  0.50346  1.0000
  Ti  Ti4       1.0  0.31172  0.97491  0.83436  1.0000
  Ti  Ti5       1.0  0.71236  0.06581  0.53311  1.0000
  Ti  Ti6       1.0  0.42780  0.81773  0.21687  1.0000
  Ti  Ti7       1.0  0.65134  0.98833  0.46938  1.0000
  Ti  Ti8       1.0  0.80130  0.28903  0.30081  1.0000
  Ti  Ti9       1.0  0.12371  0.12555  0.77007  1.0000
  Ti  Ti10      1.0  0.84001  0.49004  0.41055  1.0000
  Ti  Ti11      1.0  0.95869  0.92985  0.65167  1.0000
  Ti  Ti12      1.0  0.23113  0.92102  0.10380  1.0000
  Ti  Ti13      1.0  0.64217  0.72175  0.72453  1.0000
  Ti  Ti14      1.0  0.32855  0.94341  0.93267  1.0000
  Ti  Ti15      1.0  0.93655  0.14425  0.65727  1.0000
  Ti  Ti16      1.0  0.04158  0.19127  0.18587  1.0000
  Ti  Ti17      1.0  0.16433  0.21430  0.14436  1.0000
  Ti  Ti18      1.0  0.67209  0.28879  0.18650  1.0000
  Ti  Ti19      1.0  0.37103  0.02820  0.42761  1.0000
  Ti  Ti20      1.0  0.16472  0.42876  0.69860  1.0000
  Ti  Ti21      1.0  0.78428  0.25517  0.23755  1.0000
  Ti  Ti22      1.0  0.54291  0.44699  0.37673  1.0000
  Ti  Ti23      1.0  0.30161  0.33426  0.93947  1.0000
  Ti  Ti24      1.0  0.39071  0.39017  0.66990  1.0000
  Ti  Ti25      1.0  0.77169  0.19889  0.42083  1.0000
  Ti  Ti26      1.0  0.22436  0.74375  0.07446  1.0000
  Ti  Ti27      1.0  0.81910  0.75914  0.35740  1.0000
  Ti  Ti28      1.0  0.42983  0.90692  0.43769  1.0000
  Ti  Ti29      1.0  0.04435  0.91511  0.65902  1.0000
  Ti  Ti30      1.0  0.21299  0.64641  0.22160  1.0000
  Ti  Ti31      1.0  0.84105  0.07731  0.49293  1.0000
  Ti  Ti32      1.0  0.35808  0.97206  0.65996  1.0000
  Ti  Ti33      1.0  0.59927  0.24732  0.11575  1.0000
  Ti  Ti34      1.0  0.18705  0.41252  0.28901  1.0000
  Ti  Ti35      1.0  0.57388  0.08695  0.80151  1.0000
  Ti  Ti36      1.0  0.67845  0.07705  0.20629  1.0000
  Ti  Ti37      1.0  0.50257  0.02937  0.79981  1.0000
  Ti  Ti38      1.0  0.44656  0.56241  0.56694  1.0000
  Ti  Ti39      1.0  0.87656  0.48975  0.39003  1.0000
  Ti  Ti40      1.0  0.71834  0.61648  0.00003  1.0000
  Ti  Ti41      1.0  0.35167  0.57241  0.43883  1.0000
  Ti  Ti42      1.0  0.03438  0.55861  0.34506  1.0000
  Ti  Ti43      1.0  0.27707  0.80789  0.50556  1.0000
  Ti  Ti44      1.0  0.99153  0.29277  0.77623  1.0000
  Ti  Ti45      1.0  0.89741  0.36342  0.82223  1.0000
  Ti  Ti46      1.0  0.79120  0.53356  0.69394  1.0000
  Ti  Ti47      1.0  0.70622  0.25238  0.68390  1.0000
  Ti  Ti48      1.0  0.76184  0.80706  0.84851  1.0000
  Ti  Ti49      1.0  0.15951  0.83477  0.37581  1.0000
  Ti  Ti50      1.0  0.15458  0.42988  0.61432  1.0000
  Ti  Ti51      1.0  0.57551  0.87545  0.51253  1.0000
  Ti  Ti52      1.0  0.41783  0.64002  0.46538  1.0000
  Ti  Ti53      1.0  0.00002  0.79123  0.44610  1.0000
  Ti  Ti54      1.0  0.41836  0.79071  0.91529  1.0000
  Ti  Ti55      1.0  0.64386  0.56342  0.46116  1.0000
  Ti  Ti56      1.0  0.74410  0.13993  0.54632  1.0000
  Ti  Ti57      1.0  0.10842  0.13956  0.70382  1.0000
  Ti  Ti58      1.0  0.49897  0.20914  0.30105  1.0000
  Ti  Ti59      1.0  0.07109  0.13928  0.21107  1.0000
  Ti  Ti60      1.0  0.06282  0.28631  0.35164  1.0000
  Ti  Ti61      1.0  0.48699  0.21541  0.76937  1.0000
  Ti  Ti62      1.0  0.67120  0.66782  0.74735  1.0000
  Ti  Ti63      1.0  0.07412  0.76533  0.18658  1.0000
  Ti  Ti64      1.0  0.66867  0.30995  0.27454  1.0000
  Ti  Ti65      1.0  0.77502  0.63344  0.02811  1.0000
  Ti  Ti66      1.0  0.44888  0.91009  0.36611  1.0000
  Ti  Ti67      1.0  0.12068  0.63517  0.81068  1.0000
  Ti  Ti68      1.0  0.80496  0.54017  0.79589  1.0000
  Ti  Ti69      1.0  0.16850  0.78671  0.06427  1.0000
  Ti  Ti70      1.0  0.32025  0.17600  0.56806  1.0000
  Ti  Ti71      1.0  0.37201  0.76235  0.02006  1.0000
  Ti  Ti72      1.0  0.67191  0.22600  0.69226  1.0000
  Ti  Ti73      1.0  0.56086  0.30399  0.46497  1.0000
  Ti  Ti74      1.0  0.75540  0.24185  0.49323  1.0000
  Ti  Ti75      1.0  0.73642  0.69886  0.17853  1.0000
  Ti  Ti76      1.0  0.97040  0.02319  0.07059  1.0000
  Ti  Ti77      1.0  0.97750  0.12892  0.61001  1.0000
  Ti  Ti78      1.0  0.08499  0.90073  0.69620  1.0000
  Ti  Ti79      1.0  0.52651  0.96829  0.30407  1.0000
  Ti  Ti80      1.0  0.94722  0.57736  0.66071  1.0000
  Ti  Ti81      1.0  0.29767  0.38017  0.91094  1.0000
  Ti  Ti82      1.0  0.74540  0.40653  0.31827  1.0000
  Ti  Ti83      1.0  0.87754  0.35721  0.88284  1.0000
  Ti  Ti84      1.0  0.66618  0.09198  0.08928  1.0000
  Ti  Ti85      1.0  0.46637  0.05888  0.73136  1.0000
  Ti  Ti86      1.0  0.61102  0.98312  0.48749  1.0000
  Ti  Ti87      1.0  0.56263  0.82161  0.78373  1.0000
  Ti  Ti88      1.0  0.98418  0.11374  0.22680  1.0000
  Ti  Ti89      1.0  0.10378  0.27454  0.03304  1.0000
  Ti  Ti90      1.0  0.17523  0.16979  0.17283  1.0000
  Ti  Ti91      1.0  0.60408  0.44083  0.71341  1.0000
  Ti  Ti92      1.0  0.56274  0.58352  0.87603  1.0000
  Ti  Ti93      1.0  0.41180  0.69464  0.77933  1.0000
  Ti  Ti94      1.0  0.76886  0.83467  0.88033  1.0000
  Ti  Ti95      1.0  0.83096  0.99951  0.17348  1.0000
  Ti  Ti96      1.0  0.47545  0.33540  0.91040  1.0000
  I   I1        1.0  0.68622  0.23719  0.64059  1.0000
  I   I2        1.0  0.57079  0.89441  0.44928  1.0000
  I   I3        1.0  0.19308  0.80023  0.37823  1.0000
  I   I4        1.0  0.99945  0.81591  0.49192  1.0000
  I   I5        1.0  0.45481  0.80418  0.16985  1.0000
  I   I6        1.0  0.38258  0.80119  0.92476  1.0000
  I   I7        1.0  0.77346  0.32162  0.32447  1.0000
  I   I8        1.0  0.76864  0.14316  0.58808  1.0000
  I   I9        1.0  0.12185  0.10414  0.71139  1.0000
  I   I10       1.0  0.73935  0.59447  0.04878  1.0000
  I   I11       1.0  0.92936  0.96548  0.64468  1.0000
  I   I12       1.0  0.72265  0.03152  0.55908  1.0000
  I   I13       1.0  0.67980  0.64887  0.80649  1.0000
  I   I14       1.0  0.04828  0.79232  0.22455  1.0000
  I   I15       1.0  0.92025  0.15108  0.59957  1.0000
  I   I16       1.0  0.68408  0.62548  0.01448  1.0000
  I   I17       1.0  0.42074  0.88775  0.38115  1.0000
  I   I18       1.0  0.69394  0.25421  0.16449  1.0000
  I   I19       1.0  0.10229  0.77485  0.18238  1.0000
  I   I20       1.0  0.94243  0.91215  0.69111  1.0000
  I   I21       1.0  0.78858  0.22132  0.23192  1.0000
  I   I22       1.0  0.31626  0.30219  0.89405  1.0000
  I   I23       1.0  0.00119  0.12893  0.26716  1.0000
  I   I24       1.0  0.30379  0.17272  0.50543  1.0000
  I   I25       1.0  0.73916  0.20016  0.42902  1.0000
  I   I26       1.0  0.74332  0.66434  0.16775  1.0000
  I   I27       1.0  0.60644  0.06822  0.76631  1.0000
  I   I28       1.0  0.44136  0.89187  0.49799  1.0000
  I   I29       1.0  0.07598  0.91857  0.62479  1.0000
  I   I30       1.0  0.19312  0.68446  0.22514  1.0000
  I   I31       1.0  0.96976  0.56051  0.60603  1.0000
  I   I32       1.0  0.28399  0.41534  0.93736  1.0000
  I   I33       1.0  0.54242  0.95697  0.24324  1.0000
  I   I34       1.0  0.55910  0.06618  0.83452  1.0000
  I   I35       1.0  0.67345  0.12224  0.06392  1.0000
  I   I36       1.0  0.20267  0.37536  0.29452  1.0000
  I   I37       1.0  0.50039  0.05498  0.71487  1.0000
  I   I38       1.0  0.84226  0.52289  0.39750  1.0000
  I   I39       1.0  0.50497  0.02872  0.87113  1.0000
  I   I40       1.0  0.01678  0.30664  0.77277  1.0000
  I   I41       1.0  0.16794  0.42534  0.54632  1.0000
  I   I42       1.0  0.72908  0.58713  0.95609  1.0000
  I   I43       1.0  0.52006  0.20204  0.35778  1.0000
  I   I44       1.0  0.99337  0.27520  0.71560  1.0000
  I   I45       1.0  0.91549  0.32879  0.88692  1.0000
  I   I46       1.0  0.81590  0.98069  0.21251  1.0000
  I   I47       1.0  0.70088  0.27692  0.73544  1.0000
  I   I48       1.0  0.79921  0.79755  0.88290  1.0000
  I   I49       1.0  0.17926  0.85199  0.35961  1.0000
  I   I50       1.0  0.52199  0.86284  0.53434  1.0000
  I   I51       1.0  0.52688  0.86873  0.43586  1.0000
  I   I52       1.0  0.92638  0.61538  0.64708  1.0000
  I   I53       1.0  0.01870  0.78924  0.38245  1.0000
  I   I54       1.0  0.44437  0.75642  0.94285  1.0000
  I   I55       1.0  0.57691  0.00958  0.46841  1.0000
  I   I56       1.0  0.79654  0.28395  0.37221  1.0000
  I   I57       1.0  0.83439  0.01637  0.23094  1.0000
  I   I58       1.0  0.85966  0.48139  0.33845  1.0000
  I   I59       1.0  0.11159  0.11603  0.21195  1.0000
  I   I60       1.0  0.09063  0.26843  0.40275  1.0000
  I   I61       1.0  0.66178  0.69761  0.79153  1.0000
  I   I62       1.0  0.62523  0.69647  0.74649  1.0000
  I   I63       1.0  0.19620  0.43092  0.70541  1.0000
  I   I64       1.0  0.02780  0.16326  0.19957  1.0000
  I   I65       1.0  0.78157  0.60342  0.98815  1.0000
  I   I66       1.0  0.39327  0.93024  0.47113  1.0000
  I   I67       1.0  0.38137  0.01411  0.48937  1.0000
  I   I68       1.0  0.17080  0.40787  0.75599  1.0000
  I   I69       1.0  0.20568  0.77730  0.02913  1.0000
  I   I70       1.0  0.32528  0.20631  0.56299  1.0000
  I   I71       1.0  0.29085  0.31758  0.98640  1.0000
  I   I72       1.0  0.69315  0.18779  0.66558  1.0000
  I   I73       1.0  0.78568  0.79330  0.35019  1.0000
  I   I74       1.0  0.25339  0.75316  0.06918  1.0000
  I   I75       1.0  0.20452  0.72787  0.04553  1.0000
  I   I76       1.0  0.96680  0.10380  0.62985  1.0000
  I   I77       1.0  0.92158  0.18053  0.66708  1.0000
  I   I78       1.0  0.84526  0.08623  0.56099  1.0000
  I   I79       1.0  0.56864  0.25799  0.07040  1.0000
  I   I80       1.0  0.62934  0.76733  0.02920  1.0000
  I   I81       1.0  0.35468  0.00545  0.64809  1.0000
  I   I82       1.0  0.76094  0.42155  0.28406  1.0000
  I   I83       1.0  0.89092  0.33421  0.81103  1.0000
  I   I84       1.0  0.66884  0.10543  0.25476  1.0000
  I   I85       1.0  0.43774  0.09310  0.72917  1.0000
  I   I86       1.0  0.47788  0.91640  0.35840  1.0000
  I   I87       1.0  0.87853  0.52361  0.34966  1.0000
  I   I88       1.0  0.81421  0.49862  0.45803  1.0000
  I   I89       1.0  0.17144  0.41966  0.22503  1.0000
  I   I90       1.0  0.13416  0.41220  0.65781  1.0000
  I   I91       1.0  0.63900  0.40923  0.69867  1.0000
  I   I92       1.0  0.58631  0.55631  0.91046  1.0000
  I   I93       1.0  0.96077  0.32923  0.79429  1.0000
  I   I94       1.0  0.75353  0.81581  0.93102  1.0000
  I   I95       1.0  0.75820  0.53899  0.72542  1.0000
  I   I96       1.0  0.57956  0.42954  0.35881  1.0000
  I   I97       1.0  0.13253  0.09841  0.55375  1.0000
  I   I98       1.0  0.64752  0.78917  0.94307  1.0000
  I   I99       1.0  0.58923  0.83832  0.46784  1.0000
  I   I100      1.0  0.34586  0.95803  0.88116  1.0000
  I   I101      1.0  0.94516  0.12932  0.21248  1.0000
  I   I102      1.0  0.73189  0.07570  0.48754  1.0000
  I   I103      1.0  0.65363  0.95385  0.50156  1.0000
  I   I104      1.0  0.60833  0.57341  0.44708  1.0000
  I   I105      1.0  0.13664  0.14242  0.67107  1.0000
  I   I106      1.0  0.20125  0.95125  0.09610  1.0000
  I   I107      1.0  0.80830  0.48649  0.37644  1.0000
  I   I108      1.0  0.22086  0.89703  0.12763  1.0000
  I   I109      1.0  0.91485  0.12744  0.68763  1.0000
  I   I110      1.0  0.65314  0.74590  0.73904  1.0000
  I   I111      1.0  0.16469  0.46260  0.62547  1.0000
  I   I112      1.0  0.64088  0.31900  0.32026  1.0000
  I   I113      1.0  0.81020  0.62554  0.01501  1.0000
  I   I114      1.0  0.13317  0.23583  0.11174  1.0000
  I   I115      1.0  0.11591  0.62054  0.87150  1.0000
  I   I116      1.0  0.15591  0.63380  0.80834  1.0000
  I   I117      1.0  0.77495  0.54263  0.83376  1.0000
  I   I118      1.0  0.44950  0.32670  0.89475  1.0000
  I   I119      1.0  0.12167  0.61400  0.75777  1.0000
  I   I120      1.0  0.70675  0.27658  0.62984  1.0000
  I   I121      1.0  0.52999  0.33302  0.44577  1.0000
  I   I122      1.0  0.77892  0.19843  0.35374  1.0000
  I   I123      1.0  0.70203  0.71190  0.20958  1.0000
  I   I124      1.0  0.23547  0.62827  0.16585  1.0000
  I   I125      1.0  0.95198  0.04374  0.12671  1.0000
  I   I126      1.0  0.07835  0.93587  0.71700  1.0000
  I   I127      1.0  0.60435  0.21499  0.13531  1.0000
  I   I128      1.0  0.30649  0.94038  0.97947  1.0000
  I   I129      1.0  0.30084  0.40962  0.85536  1.0000
  I   I130      1.0  0.62659  0.11364  0.09410  1.0000
  I   I131      1.0  0.71094  0.43364  0.30798  1.0000
  I   I132      1.0  0.58187  0.10793  0.84397  1.0000
  I   I133      1.0  0.91856  0.47089  0.38844  1.0000
  I   I134      1.0  0.44557  0.59737  0.57534  1.0000
  I   I135      1.0  0.45979  0.89029  0.30527  1.0000
  I   I136      1.0  0.04971  0.56485  0.40143  1.0000
  I   I137      1.0  0.44840  0.64035  0.48731  1.0000
  I   I138      1.0  0.07400  0.28939  0.99033  1.0000
  I   I139      1.0  0.57228  0.43766  0.68905  1.0000
  I   I140      1.0  0.57570  0.60468  0.84073  1.0000
  I   I141      1.0  0.42559  0.70308  0.73033  1.0000
  I   I142      1.0  0.77952  0.84940  0.93348  1.0000
  I   I143      1.0  0.07220  0.11328  0.47282  1.0000
  I   I144      1.0  0.55339  0.42438  0.43507  1.0000
  I   I145      1.0  0.67782  0.74275  0.97512  1.0000
  I   I146      1.0  0.57477  0.84655  0.55062  1.0000
  I   I147      1.0  0.08615  0.09711  0.55936  1.0000
  I   I148      1.0  0.38993  0.67744  0.46062  1.0000
  I   I149      1.0  0.70968  0.08912  0.58225  1.0000
  I   I150      1.0  0.42355  0.81723  0.28374  1.0000
  I   I151      1.0  0.66121  0.55452  0.40135  1.0000
  I   I152      1.0  0.79161  0.29020  0.22487  1.0000
  I   I153      1.0  0.11074  0.13346  0.83499  1.0000
  I   I154      1.0  0.28252  0.83701  0.50855  1.0000
  I   I155      1.0  0.97668  0.90168  0.61183  1.0000
  I   I156      1.0  0.03233  0.28775  0.37459  1.0000
  I   I157      1.0  0.01712  0.10644  0.60113  1.0000
  I   I158      1.0  0.06764  0.73437  0.19403  1.0000
  I   I159      1.0  0.51974  0.20445  0.73309  1.0000
  I   I160      1.0  0.63879  0.30777  0.23127  1.0000
  I   I161      1.0  0.16738  0.19687  0.21708  1.0000
  I   I162      1.0  0.65847  0.30951  0.13038  1.0000
  I   I163      1.0  0.33480  0.04991  0.40212  1.0000
  I   I164      1.0  0.82804  0.51246  0.67921  1.0000
  I   I165      1.0  0.75786  0.27958  0.28099  1.0000
  I   I166      1.0  0.47205  0.37014  0.91564  1.0000
  I   I167      1.0  0.28845  0.35521  0.87179  1.0000
  I   I168      1.0  0.39960  0.40003  0.73033  1.0000
  I   I169      1.0  0.71941  0.24249  0.50631  1.0000
  I   I170      1.0  0.77987  0.23221  0.43192  1.0000
  I   I171      1.0  0.80378  0.73718  0.37451  1.0000
  I   I172      1.0  0.97564  0.98999  0.10168  1.0000
  I   I173      1.0  0.10304  0.87665  0.75377  1.0000
  I   I174      1.0  0.23736  0.64570  0.26578  1.0000
  I   I175      1.0  0.83754  0.09569  0.42896  1.0000
  I   I176      1.0  0.38872  0.93938  0.67902  1.0000
  I   I177      1.0  0.51948  0.95763  0.37201  1.0000
  I   I178      1.0  0.73103  0.38788  0.37284  1.0000
  I   I179      1.0  0.84277  0.36444  0.87075  1.0000
  I   I180      1.0  0.66450  0.11271  0.15187  1.0000
  I   I181      1.0  0.53451  0.00951  0.76963  1.0000
  I   I182      1.0  0.62873  0.97814  0.42667  1.0000
  I   I183      1.0  0.55765  0.83988  0.72307  1.0000
  I   I184      1.0  0.00308  0.11698  0.17439  1.0000
  I   I185      1.0  0.08899  0.26055  0.07735  1.0000
  I   I186      1.0  0.02962  0.58654  0.30260  1.0000
  I   I187      1.0  0.54512  0.57188  0.83189  1.0000
  I   I188      1.0  0.02114  0.26184  0.80007  1.0000
  I   I189      1.0  0.53547  0.81429  0.79033  1.0000
  I   I190      1.0  0.80186  0.50803  0.76270  1.0000
  I   I191      1.0  0.14267  0.16578  0.19056  1.0000
  I   I192      1.0  0.11709  0.07214  0.47182  1.0000
  I   I193      1.0  0.02495  0.95217  0.65182  1.0000
  I   I194      1.0  0.18218  0.40051  0.64671  1.0000
  I   I195      1.0  0.11683  0.12270  0.45108  1.0000
  I   I196      1.0  0.28029  0.00446  0.81742  1.0000
  I   I197      1.0  0.47002  0.20223  0.31898  1.0000
  I   I198      1.0  0.41765  0.85583  0.21498  1.0000
  I   I199      1.0  0.33575  0.96579  0.71042  1.0000
  I   I200      1.0  0.76797  0.11461  0.49847  1.0000
  I   I201      1.0  0.15443  0.09226  0.79647  1.0000
  I   I202      1.0  0.00705  0.22050  0.18031  1.0000
  I   I203      1.0  0.19180  0.76500  0.12145  1.0000
  I   I204      1.0  0.24746  0.91530  0.04356  1.0000
  I   I205      1.0  0.66359  0.64284  0.71596  1.0000
  I   I206      1.0  0.30317  0.95094  0.80134  1.0000
  I   I207      1.0  0.97186  0.12275  0.54306  1.0000
  I   I208      1.0  0.05704  0.17810  0.24961  1.0000
  I   I209      1.0  0.18285  0.23588  0.16468  1.0000
  I   I210      1.0  0.49682  0.99491  0.27399  1.0000
  I   I211      1.0  0.35252  0.14782  0.55582  1.0000
  I   I212      1.0  0.10639  0.73911  0.23180  1.0000
  I   I213      1.0  0.16356  0.81890  0.10002  1.0000
  I   I214      1.0  0.53392  0.45539  0.30728  1.0000
  I   I215      1.0  0.32847  0.37029  0.86362  1.0000
  I   I216      1.0  0.37291  0.71081  0.76565  1.0000
  I   I217      1.0  0.79561  0.16422  0.42121  1.0000
  I   I218      1.0  0.72490  0.72965  0.13908  1.0000
  I   I219      1.0  0.56799  0.31482  0.52537  1.0000
  I   I220      1.0  0.97255  0.13712  0.69256  1.0000
  I   I221      1.0  0.04527  0.91614  0.72548  1.0000
  I   I222      1.0  0.93542  0.04302  0.04422  1.0000
  I   I223      1.0  0.87483  0.04941  0.46938  1.0000
  I   I224      1.0  0.33720  0.96614  0.61544  1.0000
  I   I225      1.0  0.62167  0.25366  0.07884  1.0000
  I   I226      1.0  0.74795  0.38507  0.26586  1.0000
  I   I227      1.0  0.53426  0.10452  0.78793  1.0000
  I   I228      1.0  0.71356  0.05158  0.22557  1.0000
  I   I229      1.0  0.49299  0.24479  0.30597  1.0000
  I   I230      1.0  0.48395  0.54918  0.55789  1.0000
  I   I231      1.0  0.87238  0.45208  0.41794  1.0000
  I   I232      1.0  0.36252  0.92632  0.95883  1.0000
  I   I233      1.0  0.37606  0.53916  0.47249  1.0000
  I   I234      1.0  0.20506  0.17620  0.15380  1.0000
  I   I235      1.0  0.31714  0.78420  0.51426  1.0000
  I   I236      1.0  0.42997  0.69526  0.83675  1.0000
  I   I237      1.0  0.59037  0.47684  0.70609  1.0000
  I   I238      1.0  0.84650  0.01526  0.12750  1.0000
  I   I239      1.0  0.49918  0.31717  0.85951  1.0000
  I   I240      1.0  0.76696  0.79838  0.78266  1.0000
  I   I241      1.0  0.62526  0.76036  0.90178  1.0000
  I   I242      1.0  0.55179  0.81428  0.47429  1.0000
  I   I243      1.0  0.78707  0.53353  0.62747  1.0000
  I   I244      1.0  0.99236  0.07702  0.22235  1.0000
  I   I245      1.0  0.01506  0.76145  0.49230  1.0000
  I   I246      1.0  0.40254  0.81299  0.17524  1.0000
  I   I247      1.0  0.62205  0.02433  0.43556  1.0000
  I   I248      1.0  0.75726  0.27203  0.18338  1.0000
  I   I249      1.0  0.08503  0.17090  0.73942  1.0000
  I   I250      1.0  0.07005  0.11160  0.17337  1.0000
  I   I251      1.0  0.96188  0.93901  0.72451  1.0000
  I   I252      1.0  0.07051  0.26359  0.30034  1.0000
  I   I253      1.0  0.66333  0.69191  0.67927  1.0000
  I   I254      1.0  0.29579  0.98043  0.89772  1.0000
  I   I255      1.0  0.49591  0.22488  0.82690  1.0000
  I   I256      1.0  0.75519  0.63655  0.08296  1.0000
  I   I257      1.0  0.48114  0.06757  0.81669  1.0000
  I   I258      1.0  0.69188  0.30861  0.20343  1.0000
  I   I259      1.0  0.09189  0.67027  0.80912  1.0000
  I   I260      1.0  0.84075  0.51572  0.78024  1.0000
  I   I261      1.0  0.81686  0.25119  0.29235  1.0000
  I   I262      1.0  0.53262  0.48418  0.38123  1.0000
  I   I263      1.0  0.35814  0.74071  0.05221  1.0000
  I   I264      1.0  0.65776  0.06401  0.23067  1.0000
  I   I265      1.0  0.77781  0.20505  0.50540  1.0000
  I   I266      1.0  0.24070  0.71916  0.12248  1.0000
  I   I267      1.0  0.58052  0.29093  0.40508  1.0000
  I   I268      1.0  0.43228  0.93924  0.43030  1.0000
  I   I269      1.0  0.11824  0.88120  0.66029  1.0000
  I   I270      1.0  0.41083  0.93786  0.35048  1.0000
  I   I271      1.0  0.82722  0.05332  0.51438  1.0000
  I   I272      1.0  0.27353  0.37655  0.96219  1.0000
  I   I273      1.0  0.59484  0.26883  0.17348  1.0000
  I   I274      1.0  0.37467  0.56556  0.38312  1.0000
  I   I275      1.0  0.83718  0.75552  0.29408  1.0000
  I   I276      1.0  0.65648  0.07710  0.03538  1.0000
  I   I277      1.0  0.77184  0.39202  0.36706  1.0000
  I   I278      1.0  0.42784  0.56893  0.50796  1.0000
  I   I279      1.0  0.95748  0.28873  0.79964  1.0000
  I   I280      1.0  0.41245  0.61841  0.42049  1.0000
  I   I281      1.0  0.32078  0.58396  0.40276  1.0000
  I   I282      1.0  0.99953  0.56669  0.34928  1.0000
  I   I283      1.0  0.27872  0.79579  0.57133  1.0000
  I   I284      1.0  0.35854  0.41937  0.66350  1.0000
  I   I285      1.0  0.59773  0.79170  0.78341  1.0000
  I   I286      1.0  0.86418  0.96253  0.16939  1.0000
  I   I287      1.0  0.63652  0.25256  0.68320  1.0000
  I   I288      1.0  0.73461  0.84486  0.85392  1.0000
  I   I289      1.0  0.24111  0.81880  0.48003  1.0000
  I   I290      1.0  0.18270  0.21736  0.08482  1.0000
  I   I291      1.0  0.54196  0.90151  0.52688  1.0000
  I   I292      1.0  0.40429  0.64134  0.52597  1.0000
  I   I293      1.0  0.96540  0.79128  0.44286  1.0000
  I   I294      1.0  0.42199  0.81655  0.95076  1.0000
  I   I295      1.0  0.67963  0.98093  0.51059  1.0000
  I   I296      1.0  0.71000  0.14304  0.56689  1.0000
  I   I297      1.0  0.08905  0.14395  0.64730  1.0000
  I   I298      1.0  0.52334  0.19344  0.25403  1.0000
  I   I299      1.0  0.06533  0.20821  0.18583  1.0000
  I   I300      1.0  0.42533  0.65889  0.79211  1.0000
  I   I301      1.0  0.48560  0.18373  0.75393  1.0000
  I   I302      1.0  0.60449  0.74403  0.69511  1.0000
  I   I303      1.0  0.72605  0.64647  0.99999  1.0000
  I   I304      1.0  0.68509  0.27238  0.26298  1.0000
  I   I305      1.0  0.06234  0.12733  0.27020  1.0000
  I   I306      1.0  0.68069  0.96903  0.43207  1.0000
  I   I307      1.0  0.39318  0.04452  0.43375  1.0000
  I   I308      1.0  0.13059  0.46104  0.70069  1.0000
  I   I309      1.0  0.82345  0.30661  0.31150  1.0000
  I   I310      1.0  0.14622  0.84109  0.43970  1.0000
  I   I311      1.0  0.36270  0.79371  0.05995  1.0000
  I   I312      1.0  0.70542  0.22258  0.71986  1.0000
  I   I313      1.0  0.55341  0.27616  0.49154  1.0000
  I   I314      1.0  0.77367  0.25491  0.53299  1.0000
  I   I315      1.0  0.76356  0.70001  0.21316  1.0000
  I   I316      1.0  0.00268  0.02417  0.05140  1.0000
  I   I317      1.0  0.47016  0.88605  0.41216  1.0000
  I   I318      1.0  0.00722  0.91048  0.65842  1.0000
  I   I319      1.0  0.54109  0.98779  0.34341  1.0000
  I   I320      1.0  0.33565  0.98721  0.80236  1.0000
  I   I321      1.0  0.65741  0.52749  0.48606  1.0000
  I   I322      1.0  0.16941  0.41837  0.34831  1.0000
  I   I323      1.0  0.91919  0.38299  0.82871  1.0000
  I   I324      1.0  0.68500  0.05881  0.14017  1.0000
  I   I325      1.0  0.47159  0.02484  0.77800  1.0000
  I   I326      1.0  0.61896  0.00458  0.52682  1.0000
  I   I327      1.0  0.88208  0.38178  0.76268  1.0000
  I   I328      1.0  0.87178  0.48637  0.45972  1.0000
  I   I329      1.0  0.12062  0.29237  0.05869  1.0000
  I   I330      1.0  0.16853  0.17871  0.10294  1.0000
  I   I331      1.0  0.56147  0.84449  0.83134  1.0000
  I   I332      1.0  0.19534  0.13396  0.20224  1.0000
  I   I333      1.0  0.22049  0.41701  0.28945  1.0000
  I   I334      1.0  0.78269  0.84212  0.81566  1.0000
  I   I335      1.0  0.81406  0.55892  0.84582  1.0000
  I   I336      1.0  0.47796  0.33082  0.97879  1.0000
  I   I337      1.0  0.13531  0.83485  0.32690  1.0000
  I   I338      1.0  0.11663  0.44054  0.59505  1.0000
  I   I339      1.0  0.59792  0.88479  0.54188  1.0000
  I   I340      1.0  0.92034  0.56603  0.63785  1.0000
  I   I341      1.0  0.67803  0.08027  0.51202  1.0000
  I   I342      1.0  0.42121  0.78910  0.84768  1.0000
  I   I343      1.0  0.63491  0.60247  0.47512  1.0000
  I   I344      1.0  0.73494  0.17576  0.52202  1.0000
  I   I345      1.0  0.14357  0.14580  0.75619  1.0000
  I   I346      1.0  0.31665  0.17147  0.63562  1.0000
  I   I347      1.0  0.06889  0.16236  0.14082  1.0000
  I   I348      1.0  0.05950  0.31903  0.33394  1.0000
  I   I349      1.0  0.46579  0.25374  0.75827  1.0000
  I   I350      1.0  0.70473  0.66549  0.72354  1.0000
  I   I351      1.0  0.33274  0.91197  0.90455  1.0000
  I   I352      1.0  0.68308  0.32122  0.32250  1.0000
  I   I353      1.0  0.76601  0.66242  0.98668  1.0000
  I   I354      1.0  0.59998  0.96468  0.53021  1.0000
  I   I355      1.0  0.38674  0.99474  0.39615  1.0000
  I   I356      1.0  0.79092  0.56784  0.74299  1.0000
  I   I357      1.0  0.15818  0.79463  0.99648  1.0000
  I   I358      1.0  0.41270  0.39668  0.62568  1.0000
  I   I359      1.0  0.35788  0.77053  0.96006  1.0000
  I   I360      1.0  0.66172  0.21188  0.75025  1.0000
  I   I361      1.0  0.84805  0.75867  0.39157  1.0000
  I   I362      1.0  0.73986  0.27606  0.45812  1.0000
  I   I363      1.0  0.13798  0.78074  0.07122  1.0000
  I   I364      1.0  0.18680  0.64024  0.25864  1.0000
  I   I365      1.0  0.97060  0.16363  0.59747  1.0000
  I   I366      1.0  0.07061  0.87808  0.66661  1.0000
  I   I367      1.0  0.54153  0.92726  0.31653  1.0000
  I   I368      1.0  0.96809  0.54553  0.69958  1.0000
  I   I369      1.0  0.32612  0.34833  0.95350  1.0000
  I   I370      1.0  0.35775  0.58835  0.49756  1.0000
  I   I371      1.0  0.87701  0.39312  0.87978  1.0000
  I   I372      1.0  0.39801  0.35927  0.63346  1.0000
  I   I373      1.0  0.46086  0.05004  0.66550  1.0000
  I   I374      1.0  0.42030  0.56984  0.61193  1.0000
  I   I375      1.0  0.87016  0.36020  0.95121  1.0000
  I   I376      1.0  0.40676  0.74139  0.99153  1.0000
  I   I377      1.0  0.13189  0.24390  0.00499  1.0000
  I   I378      1.0  0.04438  0.52734  0.39389  1.0000
  I   I379      1.0  0.60019  0.44132  0.78058  1.0000
  I   I380      1.0  0.53713  0.60972  0.91277  1.0000
  I   I381      1.0  0.25483  0.92741  0.14703  1.0000
  I   I382      1.0  0.73375  0.79816  0.85627  1.0000
  I   I383      1.0  0.79570  0.02520  0.15397  1.0000
  I   I384      1.0  0.74377  0.22890  0.68781  1.0000
