data_image0
_chemical_formula_structural       Ti96I384
_chemical_formula_sum              "Ti96 I384"
_cell_length_a       64.6829
_cell_length_b       64.4964
_cell_length_c       31.464
_cell_angle_alpha    88.7757
_cell_angle_beta     88.7757
_cell_angle_gamma    62.1586

_space_group_name_H-M_alt    "P 1"
_space_group_IT_number       1

loop_
  _space_group_symop_operation_xyz
  'x, y, z'

loop_
  _atom_site_type_symbol
  _atom_site_label
  _atom_site_symmetry_multiplicity
  _atom_site_fract_x
  _atom_site_fract_y
  _atom_site_fract_z
  _atom_site_occupancy
  Ti  Ti1       1.0  0.54226  0.86825  0.77146  1.0000
  Ti  Ti2       1.0  0.31697  0.14722  0.52746  1.0000
  Ti  Ti3       1.0  0.94256  0.62859  0.10973  1.0000
  Ti  Ti4       1.0  0.89521  0.08962  0.00325  1.0000
  Ti  Ti5       1.0  0.15158  0.80654  0.63621  1.0000
  Ti  Ti6       1.0  0.35955  0.25355  0.08335  1.0000
  Ti  Ti7       1.0  0.87879  0.97912  0.03510  1.0000
  Ti  Ti8       1.0  0.49784  0.24140  0.61729  1.0000
  Ti  Ti9       1.0  0.31758  0.82138  0.16324  1.0000
  Ti  Ti10      1.0  0.81369  0.77029  0.78002  1.0000
  Ti  Ti11      1.0  0.26347  0.43538  0.60997  1.0000
  Ti  Ti12      1.0  0.05437  0.64165  0.48808  1.0000
  Ti  Ti13      1.0  0.23464  0.27290  0.54765  1.0000
  Ti  Ti14      1.0  0.07698  0.00931  0.51893  1.0000
  Ti  Ti15      1.0  0.60334  0.18902  0.92590  1.0000
  Ti  Ti16      1.0  0.56127  0.02610  0.85306  1.0000
  Ti  Ti17      1.0  0.46160  0.17444  0.77368  1.0000
  Ti  Ti18      1.0  0.09099  0.66067  0.84198  1.0000
  Ti  Ti19      1.0  0.76979  0.82250  0.35669  1.0000
  Ti  Ti20      1.0  0.46824  0.06596  0.96318  1.0000
  Ti  Ti21      1.0  0.01154  0.12786  0.79431  1.0000
  Ti  Ti22      1.0  0.67826  0.39190  0.80227  1.0000
  Ti  Ti23      1.0  0.67357  0.00213  0.14346  1.0000
  Ti  Ti24      1.0  0.96695  0.83439  0.19016  1.0000
  Ti  Ti25      1.0  0.79749  0.61547  0.29075  1.0000
  Ti  Ti26      1.0  0.32446  0.99911  0.93877  1.0000
  Ti  Ti27      1.0  0.22409  0.66820  0.15952  1.0000
  Ti  Ti28      1.0  0.65860  0.37927  0.16306  1.0000
  Ti  Ti29      1.0  0.82788  0.91922  0.34454  1.0000
  Ti  Ti30      1.0  0.78449  0.38431  0.26482  1.0000
  Ti  Ti31      1.0  0.87165  0.30477  0.53828  1.0000
  Ti  Ti32      1.0  0.60990  0.20759  0.22439  1.0000
  Ti  Ti33      1.0  0.37174  0.91216  0.43662  1.0000
  Ti  Ti34      1.0  0.52361  0.59924  0.86030  1.0000
  Ti  Ti35      1.0  0.77192  0.45331  0.68495  1.0000
  Ti  Ti36      1.0  0.97595  0.56452  0.75958  1.0000
  Ti  Ti37      1.0  0.03988  0.30162  0.20420  1.0000
  Ti  Ti38      1.0  0.38091  0.40147  0.30952  1.0000
  Ti  Ti39      1.0  0.83217  0.13164  0.56007  1.0000
  Ti  Ti40      1.0  0.41939  0.93922  0.19373  1.0000
  Ti  Ti41      1.0  0.54155  0.70459  0.34183  1.0000
  Ti  Ti42      1.0  0.83593  0.24742  0.79862  1.0000
  Ti  Ti43      1.0  0.64932  0.10045  0.69300  1.0000
  Ti  Ti44      1.0  0.83656  0.48009  0.16043  1.0000
  Ti  Ti45      1.0  0.48839  0.52903  0.36964  1.0000
  Ti  Ti46      1.0  0.25612  0.40447  0.02440  1.0000
  Ti  Ti47      1.0  0.03436  0.44627  0.12690  1.0000
  Ti  Ti48      1.0  0.47981  0.67852  0.54019  1.0000
  Ti  Ti49      1.0  0.48659  0.86744  0.74163  1.0000
  Ti  Ti50      1.0  0.23192  0.15137  0.64758  1.0000
  Ti  Ti51      1.0  0.29696  0.14312  0.43345  1.0000
  Ti  Ti52      1.0  0.93363  0.06680  0.94130  1.0000
  Ti  Ti53      1.0  0.23186  0.67173  0.57618  1.0000
  Ti  Ti54      1.0  0.37318  0.19664  0.04513  1.0000
  Ti  Ti55      1.0  0.89289  0.93816  0.92909  1.0000
  Ti  Ti56      1.0  0.44417  0.25725  0.56199  1.0000
  Ti  Ti57      1.0  0.27183  0.81944  0.21839  1.0000
  Ti  Ti58      1.0  0.64570  0.12500  0.55937  1.0000
  Ti  Ti59      1.0  0.81362  0.81062  0.90683  1.0000
  Ti  Ti60      1.0  0.08097  0.65810  0.40355  1.0000
  Ti  Ti61      1.0  0.55636  0.22867  0.95878  1.0000
  Ti  Ti62      1.0  0.24824  0.31482  0.53765  1.0000
  Ti  Ti63      1.0  0.10062  0.95940  0.58353  1.0000
  Ti  Ti64      1.0  0.09560  0.65276  0.95115  1.0000
  Ti  Ti65      1.0  0.09689  0.49065  0.81687  1.0000
  Ti  Ti66      1.0  0.47170  0.42919  0.21957  1.0000
  Ti  Ti67      1.0  0.72957  0.83964  0.47851  1.0000
  Ti  Ti68      1.0  0.95136  0.32739  0.75338  1.0000
  Ti  Ti69      1.0  0.96274  0.16827  0.75587  1.0000
  Ti  Ti70      1.0  0.64145  0.42132  0.67258  1.0000
  Ti  Ti71      1.0  0.65090  0.97055  0.17820  1.0000
  Ti  Ti72      1.0  0.08765  0.95576  0.24812  1.0000
  Ti  Ti73      1.0  0.17307  0.65730  0.14949  1.0000
  Ti  Ti74      1.0  0.84854  0.61427  0.26644  1.0000
  Ti  Ti75      1.0  0.35537  0.00557  0.04424  1.0000
  Ti  Ti76      1.0  0.80326  0.33155  0.25080  1.0000
  Ti  Ti77      1.0  0.62329  0.36615  0.18091  1.0000
  Ti  Ti78      1.0  0.88006  0.93544  0.36232  1.0000
  Ti  Ti79      1.0  0.29165  0.51146  0.91496  1.0000
  Ti  Ti80      1.0  0.80511  0.33578  0.53971  1.0000
  Ti  Ti81      1.0  0.65868  0.21800  0.24461  1.0000
  Ti  Ti82      1.0  0.48055  0.59352  0.90353  1.0000
  Ti  Ti83      1.0  0.78259  0.49898  0.68502  1.0000
  Ti  Ti84      1.0  0.95339  0.52952  0.76162  1.0000
  Ti  Ti85      1.0  0.00459  0.29867  0.31412  1.0000
  Ti  Ti86      1.0  0.39981  0.44178  0.26035  1.0000
  Ti  Ti87      1.0  0.90190  0.10439  0.49963  1.0000
  Ti  Ti88      1.0  0.53498  0.91166  0.09132  1.0000
  Ti  Ti89      1.0  0.59687  0.65335  0.29708  1.0000
  Ti  Ti90      1.0  0.79209  0.23171  0.78790  1.0000
  Ti  Ti91      1.0  0.44968  0.58779  0.38226  1.0000
  Ti  Ti92      1.0  0.79236  0.98518  0.74873  1.0000
  Ti  Ti93      1.0  0.74933  0.52357  0.18627  1.0000
  Ti  Ti94      1.0  0.40104  0.72428  0.50901  1.0000
  Ti  Ti95      1.0  0.22210  0.44759  0.92843  1.0000
  Ti  Ti96      1.0  0.04879  0.39896  0.03403  1.0000
  I   I1        1.0  0.01009  0.42482  0.98826  1.0000
  I   I2        1.0  0.30769  0.17906  0.46519  1.0000
  I   I3        1.0  0.45990  0.90601  0.70365  1.0000
  I   I4        1.0  0.26717  0.63854  0.53265  1.0000
  I   I5        1.0  0.35367  0.29514  0.06722  1.0000
  I   I6        1.0  0.36096  0.23530  0.99419  1.0000
  I   I7        1.0  0.44836  0.23834  0.65321  1.0000
  I   I8        1.0  0.44557  0.29185  0.62069  1.0000
  I   I9        1.0  0.31053  0.78220  0.20568  1.0000
  I   I10       1.0  0.82909  0.76546  0.86181  1.0000
  I   I11       1.0  0.22670  0.43482  0.58041  1.0000
  I   I12       1.0  0.12994  0.80879  0.71003  1.0000
  I   I13       1.0  0.28404  0.28479  0.57613  1.0000
  I   I14       1.0  0.06376  0.97333  0.53404  1.0000
  I   I15       1.0  0.60631  0.15487  0.98143  1.0000
  I   I16       1.0  0.59753  0.02742  0.81523  1.0000
  I   I17       1.0  0.49963  0.42437  0.28266  1.0000
  I   I18       1.0  0.12742  0.66658  0.93022  1.0000
  I   I19       1.0  0.46618  0.10660  0.97124  1.0000
  I   I20       1.0  0.27156  0.42092  0.68754  1.0000
  I   I21       1.0  0.00415  0.09618  0.82130  1.0000
  I   I22       1.0  0.68705  0.96496  0.07947  1.0000
  I   I23       1.0  0.65203  0.02262  0.20917  1.0000
  I   I24       1.0  0.66012  0.38259  0.62694  1.0000
  I   I25       1.0  0.88020  0.60941  0.31998  1.0000
  I   I26       1.0  0.36522  0.03107  0.09445  1.0000
  I   I27       1.0  0.20938  0.71158  0.17712  1.0000
  I   I28       1.0  0.61002  0.34266  0.13126  1.0000
  I   I29       1.0  0.91790  0.89665  0.37214  1.0000
  I   I30       1.0  0.80494  0.29518  0.29811  1.0000
  I   I31       1.0  0.82151  0.29856  0.48791  1.0000
  I   I32       1.0  0.66607  0.24046  0.31265  1.0000
  I   I33       1.0  0.32782  0.50743  0.95491  1.0000
  I   I34       1.0  0.82769  0.47646  0.68600  1.0000
  I   I35       1.0  0.93656  0.57084  0.79758  1.0000
  I   I36       1.0  0.51229  0.64012  0.82686  1.0000
  I   I37       1.0  0.04732  0.26986  0.27670  1.0000
  I   I38       1.0  0.80674  0.11552  0.51438  1.0000
  I   I39       1.0  0.03383  0.29015  0.12408  1.0000
  I   I40       1.0  0.63786  0.64608  0.27566  1.0000
  I   I41       1.0  0.75137  0.24626  0.81398  1.0000
  I   I42       1.0  0.42740  0.96392  0.13573  1.0000
  I   I43       1.0  0.67568  0.08320  0.60802  1.0000
  I   I44       1.0  0.73299  0.50886  0.12710  1.0000
  I   I45       1.0  0.41347  0.61180  0.32522  1.0000
  I   I46       1.0  0.28854  0.37584  0.97473  1.0000
  I   I47       1.0  0.99568  0.44591  0.13972  1.0000
  I   I48       1.0  0.37925  0.75212  0.57633  1.0000
  I   I49       1.0  0.45811  0.86126  0.78688  1.0000
  I   I50       1.0  0.33124  0.10829  0.48662  1.0000
  I   I51       1.0  0.36014  0.14128  0.53395  1.0000
  I   I52       1.0  0.85373  0.08840  0.03882  1.0000
  I   I53       1.0  0.19627  0.68028  0.62642  1.0000
  I   I54       1.0  0.40615  0.17889  0.98313  1.0000
  I   I55       1.0  0.85971  0.95274  0.99634  1.0000
  I   I56       1.0  0.48528  0.25032  0.52878  1.0000
  I   I57       1.0  0.27420  0.84059  0.13405  1.0000
  I   I58       1.0  0.81056  0.79360  0.70634  1.0000
  I   I59       1.0  0.79522  0.81548  0.82350  1.0000
  I   I60       1.0  0.09843  0.64153  0.49278  1.0000
  I   I61       1.0  0.24482  0.34360  0.47529  1.0000
  I   I62       1.0  0.20282  0.32430  0.52323  1.0000
  I   I63       1.0  0.12396  0.91945  0.54026  1.0000
  I   I64       1.0  0.56686  0.02066  0.93187  1.0000
  I   I65       1.0  0.08402  0.51141  0.74485  1.0000
  I   I66       1.0  0.48746  0.44784  0.15950  1.0000
  I   I67       1.0  0.77234  0.83962  0.44145  1.0000
  I   I68       1.0  0.50539  0.04338  0.01041  1.0000
  I   I69       1.0  0.00260  0.16990  0.72524  1.0000
  I   I70       1.0  0.60289  0.46035  0.69958  1.0000
  I   I71       1.0  0.62534  0.00493  0.12687  1.0000
  I   I72       1.0  0.08830  0.91447  0.25787  1.0000
  I   I73       1.0  0.21925  0.64517  0.08605  1.0000
  I   I74       1.0  0.35332  0.01704  0.94506  1.0000
  I   I75       1.0  0.36068  0.97973  0.11929  1.0000
  I   I76       1.0  0.70123  0.36872  0.13737  1.0000
  I   I77       1.0  0.60141  0.36528  0.25425  1.0000
  I   I78       1.0  0.87290  0.95311  0.43890  1.0000
  I   I79       1.0  0.40316  0.87993  0.38661  1.0000
  I   I80       1.0  0.83717  0.35461  0.54970  1.0000
  I   I81       1.0  0.65741  0.20160  0.17075  1.0000
  I   I82       1.0  0.55829  0.56556  0.81811  1.0000
  I   I83       1.0  0.76758  0.53960  0.64383  1.0000
  I   I84       1.0  0.96185  0.61278  0.74126  1.0000
  I   I85       1.0  0.00692  0.33934  0.31499  1.0000
  I   I86       1.0  0.37751  0.44894  0.33924  1.0000
  I   I87       1.0  0.81386  0.17796  0.55334  1.0000
  I   I88       1.0  0.45265  0.92980  0.25080  1.0000
  I   I89       1.0  0.56713  0.68459  0.24327  1.0000
  I   I90       1.0  0.78505  0.24114  0.70818  1.0000
  I   I91       1.0  0.43189  0.59986  0.45702  1.0000
  I   I92       1.0  0.74796  0.00178  0.77980  1.0000
  I   I93       1.0  0.79501  0.52976  0.17030  1.0000
  I   I94       1.0  0.44492  0.71171  0.48350  1.0000
  I   I95       1.0  0.22413  0.40685  0.90303  1.0000
  I   I96       1.0  0.08019  0.39894  0.98112  1.0000
  I   I97       1.0  0.98370  0.62490  0.11229  1.0000
  I   I98       1.0  0.50049  0.85583  0.65139  1.0000
  I   I99       1.0  0.28176  0.11293  0.42179  1.0000
  I   I100      1.0  0.91972  0.08731  0.06948  1.0000
  I   I101      1.0  0.91908  0.11163  0.94862  1.0000
  I   I102      1.0  0.18215  0.76256  0.63026  1.0000
  I   I103      1.0  0.89565  0.99104  0.96442  1.0000
  I   I104      1.0  0.88911  0.90238  0.90979  1.0000
  I   I105      1.0  0.24479  0.80504  0.18056  1.0000
  I   I106      1.0  0.05725  0.64975  0.34445  1.0000
  I   I107      1.0  0.84739  0.72733  0.76011  1.0000
  I   I108      1.0  0.03585  0.68224  0.53882  1.0000
  I   I109      1.0  0.54840  0.21925  0.04053  1.0000
  I   I110      1.0  0.26227  0.23342  0.58157  1.0000
  I   I111      1.0  0.07895  0.04782  0.53928  1.0000
  I   I112      1.0  0.06635  0.64905  0.79252  1.0000
  I   I113      1.0  0.08511  0.45839  0.84400  1.0000
  I   I114      1.0  0.42805  0.18095  0.82056  1.0000
  I   I115      1.0  0.81064  0.81917  0.32634  1.0000
  I   I116      1.0  0.73804  0.85174  0.55692  1.0000
  I   I117      1.0  0.97053  0.28292  0.77826  1.0000
  I   I118      1.0  0.64590  0.44444  0.60589  1.0000
  I   I119      1.0  0.66672  0.41385  0.87794  1.0000
  I   I120      1.0  0.04674  0.98532  0.21649  1.0000
  I   I121      1.0  0.16918  0.70071  0.13545  1.0000
  I   I122      1.0  0.77150  0.66639  0.30140  1.0000
  I   I123      1.0  0.33001  0.98559  0.86164  1.0000
  I   I124      1.0  0.84304  0.30420  0.20445  1.0000
  I   I125      1.0  0.65315  0.36827  0.08076  1.0000
  I   I126      1.0  0.83119  0.87367  0.35354  1.0000
  I   I127      1.0  0.39023  0.90058  0.50843  1.0000
  I   I128      1.0  0.84051  0.30090  0.59106  1.0000
  I   I129      1.0  0.70326  0.19118  0.24115  1.0000
  I   I130      1.0  0.96222  0.55405  0.68552  1.0000
  I   I131      1.0  0.47714  0.63437  0.92578  1.0000
  I   I132      1.0  0.73465  0.50453  0.68757  1.0000
  I   I133      1.0  0.82016  0.12935  0.63632  1.0000
  I   I134      1.0  0.38537  0.36381  0.25379  1.0000
  I   I135      1.0  0.42567  0.39792  0.30400  1.0000
  I   I136      1.0  0.84216  0.27086  0.86161  1.0000
  I   I137      1.0  0.53923  0.90379  0.01176  1.0000
  I   I138      1.0  0.53856  0.74490  0.35608  1.0000
  I   I139      1.0  0.48429  0.50595  0.30530  1.0000
  I   I140      1.0  0.77967  0.00225  0.67260  1.0000
  I   I141      1.0  0.73232  0.56728  0.15624  1.0000
  I   I142      1.0  0.49600  0.64801  0.60110  1.0000
  I   I143      1.0  0.24775  0.36882  0.03155  1.0000
  I   I144      1.0  0.05844  0.43605  0.19571  1.0000
  I   I145      1.0  0.57163  0.85391  0.83402  1.0000
  I   I146      1.0  0.30777  0.15067  0.60951  1.0000
  I   I147      1.0  0.94389  0.59447  0.15373  1.0000
  I   I148      1.0  0.93932  0.03047  0.99992  1.0000
  I   I149      1.0  0.18253  0.82298  0.66310  1.0000
  I   I150      1.0  0.40175  0.19248  0.11272  1.0000
  I   I151      1.0  0.86449  0.97113  0.88499  1.0000
  I   I152      1.0  0.52398  0.26233  0.61512  1.0000
  I   I153      1.0  0.26959  0.80233  0.29901  1.0000
  I   I154      1.0  0.61786  0.16958  0.53835  1.0000
  I   I155      1.0  0.29373  0.40706  0.55293  1.0000
  I   I156      1.0  0.07183  0.70162  0.38849  1.0000
  I   I157      1.0  0.65157  0.16768  0.93169  1.0000
  I   I158      1.0  0.08955  0.94064  0.64664  1.0000
  I   I159      1.0  0.57890  0.23255  0.87349  1.0000
  I   I160      1.0  0.06104  0.68782  0.89576  1.0000
  I   I161      1.0  0.49521  0.18333  0.78646  1.0000
  I   I162      1.0  0.12944  0.61251  0.98706  1.0000
  I   I163      1.0  0.70139  0.88100  0.44348  1.0000
  I   I164      1.0  0.94268  0.34709  0.82769  1.0000
  I   I165      1.0  0.94992  0.16140  0.83019  1.0000
  I   I166      1.0  0.63290  0.40668  0.75247  1.0000
  I   I167      1.0  0.71688  0.98703  0.16280  1.0000
  I   I168      1.0  0.99854  0.79310  0.18821  1.0000
  I   I169      1.0  0.82362  0.65786  0.24522  1.0000
  I   I170      1.0  0.76868  0.59810  0.29404  1.0000
  I   I171      1.0  0.14981  0.66304  0.22623  1.0000
  I   I172      1.0  0.76911  0.33423  0.21244  1.0000
  I   I173      1.0  0.86338  0.90555  0.40510  1.0000
  I   I174      1.0  0.74061  0.40908  0.23996  1.0000
  I   I175      1.0  0.89455  0.30430  0.61002  1.0000
  I   I176      1.0  0.57928  0.23664  0.17443  1.0000
  I   I177      1.0  0.28078  0.53662  0.83611  1.0000
  I   I178      1.0  0.43644  0.60555  0.92194  1.0000
  I   I179      1.0  0.78798  0.51731  0.76545  1.0000
  I   I180      1.0  0.92981  0.52372  0.69792  1.0000
  I   I181      1.0  0.95473  0.32670  0.30506  1.0000
  I   I182      1.0  0.43562  0.45031  0.29072  1.0000
  I   I183      1.0  0.90727  0.12722  0.43186  1.0000
  I   I184      1.0  0.57048  0.90123  0.14557  1.0000
  I   I185      1.0  0.50372  0.71134  0.30781  1.0000
  I   I186      1.0  0.81633  0.22620  0.86307  1.0000
  I   I187      1.0  0.82433  0.99175  0.78371  1.0000
  I   I188      1.0  0.86714  0.46685  0.22423  1.0000
  I   I189      1.0  0.44589  0.54125  0.40527  1.0000
  I   I190      1.0  0.17911  0.47444  0.90630  1.0000
  I   I191      1.0  0.24091  0.17760  0.69909  1.0000
  I   I192      1.0  0.43170  0.69564  0.57654  1.0000
  I   I193      1.0  0.49980  0.90098  0.77624  1.0000
  I   I194      1.0  0.25065  0.11906  0.59386  1.0000
  I   I195      1.0  0.92156  0.62786  0.03403  1.0000
  I   I196      1.0  0.85683  0.13616  0.00096  1.0000
  I   I197      1.0  0.64283  0.06621  0.66905  1.0000
  I   I198      1.0  0.35613  0.16821  0.04977  1.0000
  I   I199      1.0  0.93677  0.92363  0.90096  1.0000
  I   I200      1.0  0.42825  0.28676  0.49767  1.0000
  I   I201      1.0  0.32187  0.85970  0.13705  1.0000
  I   I202      1.0  0.78964  0.85551  0.91916  1.0000
  I   I203      1.0  0.05769  0.10113  0.79145  1.0000
  I   I204      1.0  0.05238  0.60922  0.53239  1.0000
  I   I205      1.0  0.24586  0.34509  0.59969  1.0000
  I   I206      1.0  0.07517  0.00649  0.61927  1.0000
  I   I207      1.0  0.59473  0.17279  0.85747  1.0000
  I   I208      1.0  0.53438  0.06654  0.82737  1.0000
  I   I209      1.0  0.45132  0.18041  0.69220  1.0000
  I   I210      1.0  0.06636  0.67738  0.01715  1.0000
  I   I211      1.0  0.73558  0.81614  0.40810  1.0000
  I   I212      1.0  0.49283  0.04788  0.89338  1.0000
  I   I213      1.0  0.98596  0.12409  0.71917  1.0000
  I   I214      1.0  0.68646  0.40890  0.72601  1.0000
  I   I215      1.0  0.65953  0.03636  0.08694  1.0000
  I   I216      1.0  0.92837  0.83082  0.18926  1.0000
  I   I217      1.0  0.79292  0.62175  0.20728  1.0000
  I   I218      1.0  0.31459  0.96781  0.97374  1.0000
  I   I219      1.0  0.19190  0.61371  0.18654  1.0000
  I   I220      1.0  0.65320  0.42277  0.16145  1.0000
  I   I221      1.0  0.84765  0.89767  0.27198  1.0000
  I   I222      1.0  0.80497  0.36559  0.19267  1.0000
  I   I223      1.0  0.77344  0.36970  0.49562  1.0000
  I   I224      1.0  0.61385  0.16726  0.19882  1.0000
  I   I225      1.0  0.37134  0.95356  0.44199  1.0000
  I   I226      1.0  0.48139  0.54868  0.92358  1.0000
  I   I227      1.0  0.76498  0.45108  0.76330  1.0000
  I   I228      1.0  0.98286  0.57338  0.83755  1.0000
  I   I229      1.0  0.99807  0.29427  0.39669  1.0000
  I   I230      1.0  0.38760  0.38462  0.38637  1.0000
  I   I231      1.0  0.92785  0.06247  0.48316  1.0000
  I   I232      1.0  0.38477  0.93588  0.22499  1.0000
  I   I233      1.0  0.56282  0.65517  0.34696  1.0000
  I   I234      1.0  0.87028  0.20520  0.77239  1.0000
  I   I235      1.0  0.60519  0.12037  0.57125  1.0000
  I   I236      1.0  0.71677  0.53732  0.24386  1.0000
  I   I237      1.0  0.51136  0.48739  0.40522  1.0000
  I   I238      1.0  0.27829  0.40025  0.09630  1.0000
  I   I239      1.0  0.04442  0.36291  0.01966  1.0000
  I   I240      1.0  0.38080  0.75488  0.44743  1.0000
  I   I241      1.0  0.57737  0.83621  0.72505  1.0000
  I   I242      1.0  0.26111  0.16642  0.49669  1.0000
  I   I243      1.0  0.91821  0.66403  0.16267  1.0000
  I   I244      1.0  0.95567  0.04458  0.87231  1.0000
  I   I245      1.0  0.25489  0.67832  0.63417  1.0000
  I   I246      1.0  0.33066  0.22860  0.09031  1.0000
  I   I247      1.0  0.91573  0.93472  0.01064  1.0000
  I   I248      1.0  0.52309  0.19790  0.58479  1.0000
  I   I249      1.0  0.27808  0.85442  0.24885  1.0000
  I   I250      1.0  0.78908  0.79797  0.94785  1.0000
  I   I251      1.0  0.25068  0.48032  0.61480  1.0000
  I   I252      1.0  0.11388  0.63567  0.34259  1.0000
  I   I253      1.0  0.21442  0.29385  0.62705  1.0000
  I   I254      1.0  0.12281  0.97798  0.53516  1.0000
  I   I255      1.0  0.53026  0.27450  0.95869  1.0000
  I   I256      1.0  0.09466  0.52212  0.86904  1.0000
  I   I257      1.0  0.48702  0.12775  0.78837  1.0000
  I   I258      1.0  0.13182  0.62297  0.83496  1.0000
  I   I259      1.0  0.70411  0.82195  0.51006  1.0000
  I   I260      1.0  0.91384  0.34067  0.71019  1.0000
  I   I261      1.0  0.01735  0.14589  0.86402  1.0000
  I   I262      1.0  0.68061  0.35116  0.78899  1.0000
  I   I263      1.0  0.64400  0.94056  0.12671  1.0000
  I   I264      1.0  0.96607  0.86207  0.12695  1.0000
  I   I265      1.0  0.82586  0.61958  0.35223  1.0000
  I   I266      1.0  0.27732  0.02551  0.92199  1.0000
  I   I267      1.0  0.15192  0.64539  0.09341  1.0000
  I   I268      1.0  0.64507  0.38386  0.24460  1.0000
  I   I269      1.0  0.83009  0.96040  0.35449  1.0000
  I   I270      1.0  0.82958  0.34748  0.31396  1.0000
  I   I271      1.0  0.89968  0.25552  0.55749  1.0000
  I   I272      1.0  0.65836  0.18138  0.28831  1.0000
  I   I273      1.0  0.33444  0.91043  0.44394  1.0000
  I   I274      1.0  0.52238  0.57195  0.93106  1.0000
  I   I275      1.0  0.81726  0.42819  0.69944  1.0000
  I   I276      1.0  0.99892  0.51261  0.74435  1.0000
  I   I277      1.0  0.02287  0.34550  0.18341  1.0000
  I   I278      1.0  0.37793  0.42025  0.22504  1.0000
  I   I279      1.0  0.85225  0.13112  0.47701  1.0000
  I   I280      1.0  0.50384  0.95649  0.10755  1.0000
  I   I281      1.0  0.59330  0.69395  0.35410  1.0000
  I   I282      1.0  0.80377  0.18674  0.80390  1.0000
  I   I283      1.0  0.66627  0.09240  0.77200  1.0000
  I   I284      1.0  0.82313  0.47755  0.07708  1.0000
  I   I285      1.0  0.47771  0.56478  0.30907  1.0000
  I   I286      1.0  0.23201  0.48107  0.89970  1.0000
  I   I287      1.0  0.06419  0.38690  0.11733  1.0000
  I   I288      1.0  0.50857  0.65141  0.48519  1.0000
  I   I289      1.0  0.52362  0.83464  0.78967  1.0000
  I   I290      1.0  0.21137  0.12745  0.68477  1.0000
  I   I291      1.0  0.32656  0.11097  0.36587  1.0000
  I   I292      1.0  0.88816  0.07407  0.92078  1.0000
  I   I293      1.0  0.22261  0.70083  0.51239  1.0000
  I   I294      1.0  0.34385  0.26081  0.16314  1.0000
  I   I295      1.0  0.87625  0.96664  0.11295  1.0000
  I   I296      1.0  0.49223  0.24149  0.70324  1.0000
  I   I297      1.0  0.33662  0.80726  0.09264  1.0000
  I   I298      1.0  0.65994  0.10220  0.48958  1.0000
  I   I299      1.0  0.77740  0.76351  0.79562  1.0000
  I   I300      1.0  0.08613  0.61098  0.43056  1.0000
  I   I301      1.0  0.60094  0.22409  0.97318  1.0000
  I   I302      1.0  0.25872  0.27513  0.48087  1.0000
  I   I303      1.0  0.03031  0.03835  0.50861  1.0000
  I   I304      1.0  0.08171  0.62596  0.91357  1.0000
  I   I305      1.0  0.55374  0.99244  0.82857  1.0000
  I   I306      1.0  0.37137  0.48405  0.24053  1.0000
  I   I307      1.0  0.79991  0.77667  0.35945  1.0000
  I   I308      1.0  0.42343  0.08562  0.93081  1.0000
  I   I309      1.0  0.92130  0.17694  0.71063  1.0000
  I   I310      1.0  0.71942  0.37871  0.82546  1.0000
  I   I311      1.0  0.62309  0.97148  0.23591  1.0000
  I   I312      1.0  0.08768  0.98418  0.30784  1.0000
  I   I313      1.0  0.21119  0.65541  0.23393  1.0000
  I   I314      1.0  0.84148  0.57430  0.28000  1.0000
  I   I315      1.0  0.31199  0.02583  0.02866  1.0000
  I   I316      1.0  0.79541  0.41754  0.27814  1.0000
  I   I317      1.0  0.59944  0.41257  0.14566  1.0000
  I   I318      1.0  0.89615  0.96351  0.33230  1.0000
  I   I319      1.0  0.29958  0.46893  0.88453  1.0000
  I   I320      1.0  0.77697  0.35235  0.61100  1.0000
  I   I321      1.0  0.58269  0.21085  0.28982  1.0000
  I   I322      1.0  0.55889  0.60744  0.88958  1.0000
  I   I323      1.0  0.77219  0.48211  0.60176  1.0000
  I   I324      1.0  0.01956  0.55362  0.73444  1.0000
  I   I325      1.0  0.99217  0.30355  0.22547  1.0000
  I   I326      1.0  0.42723  0.43499  0.18429  1.0000
  I   I327      1.0  0.88004  0.10484  0.57102  1.0000
  I   I328      1.0  0.43406  0.89946  0.15651  1.0000
  I   I329      1.0  0.60747  0.61175  0.26251  1.0000
  I   I330      1.0  0.84103  0.27379  0.73635  1.0000
  I   I331      1.0  0.49389  0.55644  0.43755  1.0000
  I   I332      1.0  0.60313  0.12451  0.69952  1.0000
  I   I333      1.0  0.79812  0.47632  0.19859  1.0000
  I   I334      1.0  0.37593  0.70375  0.51542  1.0000
  I   I335      1.0  0.20956  0.44551  0.01281  1.0000
  I   I336      1.0  0.05166  0.44264  0.04656  1.0000
  I   I337      1.0  0.54818  0.90231  0.73353  1.0000
  I   I338      1.0  0.19947  0.18490  0.60611  1.0000
  I   I339      1.0  0.27474  0.17570  0.38280  1.0000
  I   I340      1.0  0.97402  0.06605  0.96735  1.0000
  I   I341      1.0  0.11783  0.81016  0.59142  1.0000
  I   I342      1.0  0.40176  0.24400  0.07805  1.0000
  I   I343      1.0  0.83398  0.01114  0.04351  1.0000
  I   I344      1.0  0.43436  0.22585  0.53509  1.0000
  I   I345      1.0  0.34955  0.80497  0.22052  1.0000
  I   I346      1.0  0.64039  0.14149  0.65010  1.0000
  I   I347      1.0  0.85388  0.79688  0.94614  1.0000
  I   I348      1.0  0.01757  0.65848  0.44083  1.0000
  I   I349      1.0  0.53042  0.21232  0.91763  1.0000
  I   I350      1.0  0.20567  0.25983  0.53016  1.0000
  I   I351      1.0  0.08911  0.99636  0.44188  1.0000
  I   I352      1.0  0.10813  0.68726  0.80203  1.0000
  I   I353      1.0  0.14187  0.46763  0.80321  1.0000
  I   I354      1.0  0.48541  0.38760  0.19614  1.0000
  I   I355      1.0  0.75071  0.83401  0.27688  1.0000
  I   I356      1.0  0.98059  0.33827  0.71103  1.0000
  I   I357      1.0  0.93278  0.21366  0.75683  1.0000
  I   I358      1.0  0.96082  0.86159  0.25054  1.0000
  I   I359      1.0  0.68860  0.94404  0.23027  1.0000
  I   I360      1.0  0.12351  0.95997  0.21455  1.0000
  I   I361      1.0  0.26938  0.64923  0.14447  1.0000
  I   I362      1.0  0.86704  0.60381  0.18858  1.0000
  I   I363      1.0  0.38584  0.96323  0.00457  1.0000
  I   I364      1.0  0.77587  0.36200  0.32972  1.0000
  I   I365      1.0  0.66427  0.32944  0.17507  1.0000
  I   I366      1.0  0.78416  0.93613  0.37724  1.0000
  I   I367      1.0  0.26658  0.51529  0.98006  1.0000
  I   I368      1.0  0.90425  0.31408  0.50980  1.0000
  I   I369      1.0  0.61043  0.24512  0.27579  1.0000
  I   I370      1.0  0.49462  0.59016  0.81727  1.0000
  I   I371      1.0  0.76167  0.42145  0.64933  1.0000
  I   I372      1.0  0.95205  0.49686  0.80842  1.0000
  I   I373      1.0  0.08002  0.29882  0.22521  1.0000
  I   I374      1.0  0.33579  0.42192  0.31662  1.0000
  I   I375      1.0  0.92487  0.12274  0.55347  1.0000
  I   I376      1.0  0.51536  0.88866  0.12403  1.0000
  I   I377      1.0  0.53530  0.69499  0.42562  1.0000
  I   I378      1.0  0.79111  0.28089  0.79145  1.0000
  I   I379      1.0  0.44921  0.63011  0.37292  1.0000
  I   I380      1.0  0.80698  0.94037  0.74272  1.0000
  I   I381      1.0  0.87286  0.48073  0.11741  1.0000
  I   I382      1.0  0.50211  0.70228  0.56169  1.0000
  I   I383      1.0  0.26702  0.43946  0.98170  1.0000
  I   I384      1.0  0.01994  0.49117  0.13775  1.0000
