data_image0
_chemical_formula_structural       Ti96I384
_chemical_formula_sum              "Ti96 I384"
_cell_length_a       57.1725
_cell_length_b       57.878
_cell_length_c       27.9984
_cell_angle_alpha    88.7757
_cell_angle_beta     88.7757
_cell_angle_gamma    62.1586

_space_group_name_H-M_alt    "P 1"
_space_group_IT_number       1

loop_
  _space_group_symop_operation_xyz
  'x, y, z'

loop_
  _atom_site_type_symbol
  _atom_site_label
  _atom_site_symmetry_multiplicity
  _atom_site_fract_x
  _atom_site_fract_y
  _atom_site_fract_z
  _atom_site_occupancy
  Ti  Ti1       1.0  0.89633  0.70792  0.99377  1.0000
  Ti  Ti2       1.0  0.83843  0.96202  0.04075  1.0000
  Ti  Ti3       1.0  0.80283  0.74716  0.47272  1.0000
  Ti  Ti4       1.0  0.34502  0.21360  0.30171  1.0000
  Ti  Ti5       1.0  0.12497  0.94820  0.87666  1.0000
  Ti  Ti6       1.0  0.12489  0.09538  0.33960  1.0000
  Ti  Ti7       1.0  0.96414  0.79476  0.76602  1.0000
  Ti  Ti8       1.0  0.12533  0.90700  0.57531  1.0000
  Ti  Ti9       1.0  0.74441  0.13650  0.85452  1.0000
  Ti  Ti10      1.0  0.47222  0.98166  0.19868  1.0000
  Ti  Ti11      1.0  0.09301  0.56684  0.92139  1.0000
  Ti  Ti12      1.0  0.70422  0.87829  0.83022  1.0000
  Ti  Ti13      1.0  0.38049  0.25485  0.95668  1.0000
  Ti  Ti14      1.0  0.15550  0.32680  0.30928  1.0000
  Ti  Ti15      1.0  0.25273  0.06431  0.74073  1.0000
  Ti  Ti16      1.0  0.99580  0.89291  0.37513  1.0000
  Ti  Ti17      1.0  0.13882  0.65960  0.12741  1.0000
  Ti  Ti18      1.0  0.92707  0.39026  0.17572  1.0000
  Ti  Ti19      1.0  0.72501  0.67689  0.26210  1.0000
  Ti  Ti20      1.0  0.69478  0.80878  0.45003  1.0000
  Ti  Ti21      1.0  0.33645  0.39422  0.16974  1.0000
  Ti  Ti22      1.0  0.52251  0.87128  0.56392  1.0000
  Ti  Ti23      1.0  0.56603  0.82970  0.84531  1.0000
  Ti  Ti24      1.0  0.58135  0.92988  0.61814  1.0000
  Ti  Ti25      1.0  0.23876  0.22691  0.53158  1.0000
  Ti  Ti26      1.0  0.24058  0.33643  0.81724  1.0000
  Ti  Ti27      1.0  0.30976  0.56021  0.46829  1.0000
  Ti  Ti28      1.0  0.51572  0.73610  0.49509  1.0000
  Ti  Ti29      1.0  0.78187  0.41815  0.40941  1.0000
  Ti  Ti30      1.0  0.84154  0.47935  0.59840  1.0000
  Ti  Ti31      1.0  0.71671  0.42539  0.14575  1.0000
  Ti  Ti32      1.0  0.96559  0.07893  0.32156  1.0000
  Ti  Ti33      1.0  0.99833  0.15261  0.57515  1.0000
  Ti  Ti34      1.0  0.91888  0.76428  0.24362  1.0000
  Ti  Ti35      1.0  0.68974  0.64385  0.86012  1.0000
  Ti  Ti36      1.0  0.98581  0.56793  0.64111  1.0000
  Ti  Ti37      1.0  0.85731  0.26260  0.25013  1.0000
  Ti  Ti38      1.0  0.61669  0.28906  0.38668  1.0000
  Ti  Ti39      1.0  0.31436  0.98625  0.49011  1.0000
  Ti  Ti40      1.0  0.36002  0.71272  0.01036  1.0000
  Ti  Ti41      1.0  0.67582  0.39657  0.64843  1.0000
  Ti  Ti42      1.0  0.48950  0.76009  0.11284  1.0000
  Ti  Ti43      1.0  0.95609  0.97626  0.85976  1.0000
  Ti  Ti44      1.0  0.95034  0.55730  0.36373  1.0000
  Ti  Ti45      1.0  0.02028  0.47232  0.89814  1.0000
  Ti  Ti46      1.0  0.63781  0.08396  0.51302  1.0000
  Ti  Ti47      1.0  0.37170  0.32158  0.52546  1.0000
  Ti  Ti48      1.0  0.53104  0.47462  0.12434  1.0000
  Ti  Ti49      1.0  0.89828  0.66935  0.90354  1.0000
  Ti  Ti50      1.0  0.84878  0.99751  0.18253  1.0000
  Ti  Ti51      1.0  0.77956  0.97227  0.94167  1.0000
  Ti  Ti52      1.0  0.30458  0.18569  0.27959  1.0000
  Ti  Ti53      1.0  0.15487  0.93419  0.95887  1.0000
  Ti  Ti54      1.0  0.12423  0.08940  0.18081  1.0000
  Ti  Ti55      1.0  0.97898  0.79309  0.86631  1.0000
  Ti  Ti56      1.0  0.15182  0.83287  0.55248  1.0000
  Ti  Ti57      1.0  0.71931  0.15394  0.95313  1.0000
  Ti  Ti58      1.0  0.06626  0.89185  0.85658  1.0000
  Ti  Ti59      1.0  0.47706  0.93573  0.26840  1.0000
  Ti  Ti60      1.0  0.70990  0.92606  0.71457  1.0000
  Ti  Ti61      1.0  0.28771  0.00407  0.83007  1.0000
  Ti  Ti62      1.0  0.40003  0.19415  0.03377  1.0000
  Ti  Ti63      1.0  0.19318  0.36911  0.34761  1.0000
  Ti  Ti64      1.0  0.93386  0.34467  0.26318  1.0000
  Ti  Ti65      1.0  0.05134  0.89757  0.29223  1.0000
  Ti  Ti66      1.0  0.28194  0.68146  0.65516  1.0000
  Ti  Ti67      1.0  0.71924  0.70398  0.12904  1.0000
  Ti  Ti68      1.0  0.72043  0.86860  0.45510  1.0000
  Ti  Ti69      1.0  0.37525  0.44138  0.16600  1.0000
  Ti  Ti70      1.0  0.56205  0.90570  0.50958  1.0000
  Ti  Ti71      1.0  0.50913  0.90492  0.84303  1.0000
  Ti  Ti72      1.0  0.51923  0.79461  0.78010  1.0000
  Ti  Ti73      1.0  0.30681  0.50113  0.56389  1.0000
  Ti  Ti74      1.0  0.28679  0.22751  0.62933  1.0000
  Ti  Ti75      1.0  0.16380  0.35986  0.81413  1.0000
  Ti  Ti76      1.0  0.79248  0.56513  0.62113  1.0000
  Ti  Ti77      1.0  0.55257  0.69470  0.43901  1.0000
  Ti  Ti78      1.0  0.77120  0.48634  0.49664  1.0000
  Ti  Ti79      1.0  0.04814  0.12568  0.62783  1.0000
  Ti  Ti80      1.0  0.78505  0.40854  0.15544  1.0000
  Ti  Ti81      1.0  0.88691  0.12780  0.30182  1.0000
  Ti  Ti82      1.0  0.97329  0.76988  0.21741  1.0000
  Ti  Ti83      1.0  0.66282  0.59864  0.86984  1.0000
  Ti  Ti84      1.0  0.92731  0.62555  0.66230  1.0000
  Ti  Ti85      1.0  0.82850  0.25539  0.13418  1.0000
  Ti  Ti86      1.0  0.54217  0.28391  0.45124  1.0000
  Ti  Ti87      1.0  0.33099  0.99379  0.37297  1.0000
  Ti  Ti88      1.0  0.27776  0.77893  0.97275  1.0000
  Ti  Ti89      1.0  0.65818  0.45213  0.66832  1.0000
  Ti  Ti90      1.0  0.53261  0.69542  0.08051  1.0000
  Ti  Ti91      1.0  0.98428  0.42616  0.83956  1.0000
  Ti  Ti92      1.0  0.85988  0.12097  0.55756  1.0000
  Ti  Ti93      1.0  0.00457  0.53181  0.30728  1.0000
  Ti  Ti94      1.0  0.52205  0.41814  0.05330  1.0000
  Ti  Ti95      1.0  0.60499  0.06438  0.58066  1.0000
  Ti  Ti96      1.0  0.38688  0.29856  0.64580  1.0000
  I   I1        1.0  0.87454  0.96350  0.24824  1.0000
  I   I2        1.0  0.83585  0.96137  0.94151  1.0000
  I   I3        1.0  0.86166  0.74704  0.05202  1.0000
  I   I4        1.0  0.18083  0.91699  0.87116  1.0000
  I   I5        1.0  0.17223  0.06745  0.38587  1.0000
  I   I6        1.0  0.16223  0.06187  0.12120  1.0000
  I   I7        1.0  0.15320  0.80728  0.47841  1.0000
  I   I8        1.0  0.11532  0.84314  0.61966  1.0000
  I   I9        1.0  0.77894  0.08336  0.87888  1.0000
  I   I10       1.0  0.43851  0.99051  0.28310  1.0000
  I   I11       1.0  0.09425  0.57167  0.01166  1.0000
  I   I12       1.0  0.08775  0.94009  0.83047  1.0000
  I   I13       1.0  0.36720  0.25203  0.05280  1.0000
  I   I14       1.0  0.18686  0.39321  0.42704  1.0000
  I   I15       1.0  0.24147  0.05613  0.65344  1.0000
  I   I16       1.0  0.03295  0.85618  0.30764  1.0000
  I   I17       1.0  0.23527  0.71681  0.68463  1.0000
  I   I18       1.0  0.89913  0.33038  0.22648  1.0000
  I   I19       1.0  0.75511  0.86292  0.51901  1.0000
  I   I20       1.0  0.37799  0.36689  0.21456  1.0000
  I   I21       1.0  0.34115  0.43664  0.22111  1.0000
  I   I22       1.0  0.48094  0.93564  0.76739  1.0000
  I   I23       1.0  0.59654  0.80305  0.77316  1.0000
  I   I24       1.0  0.55662  0.95640  0.52343  1.0000
  I   I25       1.0  0.28057  0.24279  0.53221  1.0000
  I   I26       1.0  0.26002  0.31810  0.72775  1.0000
  I   I27       1.0  0.27027  0.60649  0.48256  1.0000
  I   I28       1.0  0.53465  0.75706  0.41550  1.0000
  I   I29       1.0  0.77163  0.43904  0.50576  1.0000
  I   I30       1.0  0.79022  0.52302  0.66256  1.0000
  I   I31       1.0  0.83070  0.36397  0.14278  1.0000
  I   I32       1.0  0.84739  0.16935  0.33817  1.0000
  I   I33       1.0  0.01656  0.16677  0.68589  1.0000
  I   I34       1.0  0.68384  0.68331  0.90791  1.0000
  I   I35       1.0  0.96315  0.62397  0.58990  1.0000
  I   I36       1.0  0.97239  0.79244  0.12909  1.0000
  I   I37       1.0  0.81621  0.31017  0.21410  1.0000
  I   I38       1.0  0.30046  0.96641  0.40560  1.0000
  I   I39       1.0  0.84283  0.27286  0.05766  1.0000
  I   I40       1.0  0.61373  0.46850  0.62694  1.0000
  I   I41       1.0  0.50152  0.70395  0.01110  1.0000
  I   I42       1.0  0.31321  0.72866  0.94898  1.0000
  I   I43       1.0  0.99548  0.97880  0.81551  1.0000
  I   I44       1.0  0.98040  0.57660  0.39193  1.0000
  I   I45       1.0  0.99204  0.51030  0.95819  1.0000
  I   I46       1.0  0.60733  0.12421  0.45054  1.0000
  I   I47       1.0  0.34273  0.37175  0.52741  1.0000
  I   I48       1.0  0.49228  0.47299  0.07813  1.0000
  I   I49       1.0  0.93543  0.70859  0.04210  1.0000
  I   I50       1.0  0.84456  0.00370  0.07128  1.0000
  I   I51       1.0  0.78983  0.92704  0.89789  1.0000
  I   I52       1.0  0.35213  0.14990  0.31452  1.0000
  I   I53       1.0  0.14325  0.98450  0.97779  1.0000
  I   I54       1.0  0.11690  0.13698  0.15908  1.0000
  I   I55       1.0  0.00482  0.80253  0.76829  1.0000
  I   I56       1.0  0.10341  0.89493  0.50475  1.0000
  I   I57       1.0  0.69386  0.14143  0.86073  1.0000
  I   I58       1.0  0.51257  0.95326  0.28338  1.0000
  I   I59       1.0  0.47524  0.02736  0.19980  1.0000
  I   I60       1.0  0.67161  0.92204  0.76558  1.0000
  I   I61       1.0  0.43430  0.16125  0.97659  1.0000
  I   I62       1.0  0.38012  0.16308  0.05845  1.0000
  I   I63       1.0  0.10415  0.34976  0.29425  1.0000
  I   I64       1.0  0.96544  0.92298  0.43479  1.0000
  I   I65       1.0  0.05411  0.93927  0.30736  1.0000
  I   I66       1.0  0.31286  0.69954  0.68037  1.0000
  I   I67       1.0  0.73387  0.73341  0.07834  1.0000
  I   I68       1.0  0.70674  0.79006  0.36141  1.0000
  I   I69       1.0  0.41732  0.41158  0.11594  1.0000
  I   I70       1.0  0.57782  0.85225  0.53296  1.0000
  I   I71       1.0  0.55398  0.87653  0.78881  1.0000
  I   I72       1.0  0.53161  0.74357  0.79148  1.0000
  I   I73       1.0  0.33925  0.58268  0.44907  1.0000
  I   I74       1.0  0.20298  0.35685  0.88508  1.0000
  I   I75       1.0  0.16214  0.33777  0.73562  1.0000
  I   I76       1.0  0.46227  0.76187  0.47692  1.0000
  I   I77       1.0  0.56411  0.65085  0.49084  1.0000
  I   I78       1.0  0.80113  0.50819  0.51670  1.0000
  I   I79       1.0  0.05505  0.08342  0.67860  1.0000
  I   I80       1.0  0.72707  0.46918  0.17078  1.0000
  I   I81       1.0  0.00828  0.06455  0.26958  1.0000
  I   I82       1.0  0.98518  0.80867  0.23334  1.0000
  I   I83       1.0  0.67203  0.63457  0.77538  1.0000
  I   I84       1.0  0.89551  0.66174  0.60381  1.0000
  I   I85       1.0  0.83173  0.21093  0.11443  1.0000
  I   I86       1.0  0.54990  0.24596  0.39927  1.0000
  I   I87       1.0  0.33712  0.00200  0.55037  1.0000
  I   I88       1.0  0.39287  0.69422  0.94505  1.0000
  I   I89       1.0  0.70938  0.41443  0.70521  1.0000
  I   I90       1.0  0.44613  0.76150  0.06802  1.0000
  I   I91       1.0  0.96125  0.43275  0.75327  1.0000
  I   I92       1.0  0.87161  0.14921  0.49584  1.0000
  I   I93       1.0  0.04447  0.54632  0.31574  1.0000
  I   I94       1.0  0.53944  0.42755  0.97320  1.0000
  I   I95       1.0  0.58771  0.02847  0.59286  1.0000
  I   I96       1.0  0.42097  0.32073  0.52109  1.0000
  I   I97       1.0  0.80365  0.70245  0.47790  1.0000
  I   I98       1.0  0.87352  0.74748  0.93367  1.0000
  I   I99       1.0  0.78267  0.01399  0.00434  1.0000
  I   I100      1.0  0.30431  0.21420  0.35484  1.0000
  I   I101      1.0  0.36556  0.18762  0.22200  1.0000
  I   I102      1.0  0.14338  0.89506  0.92809  1.0000
  I   I103      1.0  0.96928  0.78778  0.95722  1.0000
  I   I104      1.0  0.97145  0.77001  0.69018  1.0000
  I   I105      1.0  0.73718  0.17712  0.00692  1.0000
  I   I106      1.0  0.71912  0.86314  0.91368  1.0000
  I   I107      1.0  0.52354  0.95442  0.16673  1.0000
  I   I108      1.0  0.67607  0.97040  0.67325  1.0000
  I   I109      1.0  0.26056  0.99160  0.89672  1.0000
  I   I110      1.0  0.36679  0.21149  0.95597  1.0000
  I   I111      1.0  0.14794  0.35988  0.38266  1.0000
  I   I112      1.0  0.89833  0.39255  0.09530  1.0000
  I   I113      1.0  0.99282  0.92674  0.30683  1.0000
  I   I114      1.0  0.14460  0.61653  0.16317  1.0000
  I   I115      1.0  0.71285  0.66499  0.17336  1.0000
  I   I116      1.0  0.71786  0.67915  0.05087  1.0000
  I   I117      1.0  0.74532  0.86228  0.37359  1.0000
  I   I118      1.0  0.57924  0.90029  0.42417  1.0000
  I   I119      1.0  0.52698  0.83555  0.49867  1.0000
  I   I120      1.0  0.51638  0.84652  0.79077  1.0000
  I   I121      1.0  0.30333  0.55241  0.37994  1.0000
  I   I122      1.0  0.26772  0.23447  0.71730  1.0000
  I   I123      1.0  0.25344  0.28931  0.84166  1.0000
  I   I124      1.0  0.84767  0.52490  0.58973  1.0000
  I   I125      1.0  0.52637  0.70221  0.36541  1.0000
  I   I126      1.0  0.80206  0.45559  0.41762  1.0000
  I   I127      1.0  0.98474  0.13697  0.49153  1.0000
  I   I128      1.0  0.69463  0.44770  0.06454  1.0000
  I   I129      1.0  0.92707  0.07377  0.26049  1.0000
  I   I130      1.0  0.00917  0.54042  0.56505  1.0000
  I   I131      1.0  0.91340  0.73930  0.32058  1.0000
  I   I132      1.0  0.65637  0.58216  0.95526  1.0000
  I   I133      1.0  0.26915  0.02376  0.52336  1.0000
  I   I134      1.0  0.56739  0.29685  0.35908  1.0000
  I   I135      1.0  0.64046  0.30518  0.44824  1.0000
  I   I136      1.0  0.48763  0.79271  0.04585  1.0000
  I   I137      1.0  0.28972  0.80981  0.93174  1.0000
  I   I138      1.0  0.71343  0.35106  0.67086  1.0000
  I   I139      1.0  0.02878  0.43580  0.82294  1.0000
  I   I140      1.0  0.83948  0.08982  0.53108  1.0000
  I   I141      1.0  0.02739  0.49507  0.37450  1.0000
  I   I142      1.0  0.52016  0.47418  0.21530  1.0000
  I   I143      1.0  0.68702  0.07173  0.49871  1.0000
  I   I144      1.0  0.37622  0.34604  0.66908  1.0000
  I   I145      1.0  0.86004  0.68916  0.98042  1.0000
  I   I146      1.0  0.88848  0.92674  0.02791  1.0000
  I   I147      1.0  0.84721  0.74772  0.47568  1.0000
  I   I148      1.0  0.32148  0.15507  0.19620  1.0000
  I   I149      1.0  0.13073  0.93383  0.04248  1.0000
  I   I150      1.0  0.08995  0.08164  0.35744  1.0000
  I   I151      1.0  0.99986  0.82392  0.89826  1.0000
  I   I152      1.0  0.08400  0.95014  0.58272  1.0000
  I   I153      1.0  0.78244  0.15149  0.88202  1.0000
  I   I154      1.0  0.03477  0.87470  0.81794  1.0000
  I   I155      1.0  0.05812  0.55204  0.89580  1.0000
  I   I156      1.0  0.65597  0.88415  0.85962  1.0000
  I   I157      1.0  0.32066  0.95366  0.80990  1.0000
  I   I158      1.0  0.16012  0.39354  0.26388  1.0000
  I   I159      1.0  0.24617  0.06037  0.84392  1.0000
  I   I160      1.0  0.95789  0.33317  0.16571  1.0000
  I   I161      1.0  0.08993  0.67969  0.09973  1.0000
  I   I162      1.0  0.88530  0.41984  0.23599  1.0000
  I   I163      1.0  0.75473  0.68746  0.31851  1.0000
  I   I164      1.0  0.64733  0.81501  0.46238  1.0000
  I   I165      1.0  0.33537  0.35716  0.11301  1.0000
  I   I166      1.0  0.51060  0.91871  0.49724  1.0000
  I   I167      1.0  0.60914  0.81150  0.90956  1.0000
  I   I168      1.0  0.58692  0.89852  0.69141  1.0000
  I   I169      1.0  0.26165  0.18831  0.47533  1.0000
  I   I170      1.0  0.26797  0.19007  0.60358  1.0000
  I   I171      1.0  0.34413  0.52213  0.51670  1.0000
  I   I172      1.0  0.81738  0.58379  0.67691  1.0000
  I   I173      1.0  0.80134  0.36751  0.42570  1.0000
  I   I174      1.0  0.81719  0.44954  0.60530  1.0000
  I   I175      1.0  0.76807  0.43336  0.07363  1.0000
  I   I176      1.0  0.92734  0.13575  0.28447  1.0000
  I   I177      1.0  0.97922  0.13688  0.64278  1.0000
  I   I178      1.0  0.88111  0.76489  0.19476  1.0000
  I   I179      1.0  0.71689  0.59444  0.90323  1.0000
  I   I180      1.0  0.02431  0.56264  0.68652  1.0000
  I   I181      1.0  0.81327  0.24810  0.23834  1.0000
  I   I182      1.0  0.49835  0.31959  0.41031  1.0000
  I   I183      1.0  0.30983  0.95260  0.54766  1.0000
  I   I184      1.0  0.39077  0.71114  0.07461  1.0000
  I   I185      1.0  0.65412  0.38348  0.58311  1.0000
  I   I186      1.0  0.54472  0.64778  0.10745  1.0000
  I   I187      1.0  0.90499  0.07838  0.57889  1.0000
  I   I188      1.0  0.90455  0.59802  0.37315  1.0000
  I   I189      1.0  0.05108  0.43765  0.95244  1.0000
  I   I190      1.0  0.57522  0.09087  0.50709  1.0000
  I   I191      1.0  0.39879  0.26419  0.56548  1.0000
  I   I192      1.0  0.48518  0.40309  0.09159  1.0000
  I   I193      1.0  0.93635  0.66194  0.83616  1.0000
  I   I194      1.0  0.82189  0.97249  0.14566  1.0000
  I   I195      1.0  0.78053  0.77185  0.39395  1.0000
  I   I196      1.0  0.34900  0.25437  0.26294  1.0000
  I   I197      1.0  0.03471  0.93761  0.90712  1.0000
  I   I198      1.0  0.08994  0.08262  0.13424  1.0000
  I   I199      1.0  0.92761  0.83633  0.73048  1.0000
  I   I200      1.0  0.19320  0.78939  0.58633  1.0000
  I   I201      1.0  0.76265  0.12786  0.77063  1.0000
  I   I202      1.0  0.46362  0.92330  0.34938  1.0000
  I   I203      1.0  0.08454  0.61344  0.88816  1.0000
  I   I204      1.0  0.74184  0.88831  0.78992  1.0000
  I   I205      1.0  0.42770  0.22616  0.92210  1.0000
  I   I206      1.0  0.20895  0.31735  0.32944  1.0000
  I   I207      1.0  0.26113  0.01076  0.74920  1.0000
  I   I208      1.0  0.98158  0.85490  0.40053  1.0000
  I   I209      1.0  0.15091  0.68292  0.19416  1.0000
  I   I210      1.0  0.94840  0.41548  0.12713  1.0000
  I   I211      1.0  0.76008  0.68699  0.19221  1.0000
  I   I212      1.0  0.72728  0.76902  0.49894  1.0000
  I   I213      1.0  0.41254  0.42743  0.23433  1.0000
  I   I214      1.0  0.47498  0.88582  0.58983  1.0000
  I   I215      1.0  0.52845  0.86290  0.91780  1.0000
  I   I216      1.0  0.61800  0.94410  0.59965  1.0000
  I   I217      1.0  0.19087  0.23289  0.56071  1.0000
  I   I218      1.0  0.27211  0.35231  0.84731  1.0000
  I   I219      1.0  0.27082  0.49131  0.60545  1.0000
  I   I220      1.0  0.56737  0.71452  0.52469  1.0000
  I   I221      1.0  0.73241  0.42844  0.39651  1.0000
  I   I222      1.0  0.88269  0.44916  0.55647  1.0000
  I   I223      1.0  0.75454  0.37882  0.11592  1.0000
  I   I224      1.0  0.98216  0.03108  0.35942  1.0000
  I   I225      1.0  0.96303  0.20077  0.56926  1.0000
  I   I226      1.0  0.96767  0.74710  0.30128  1.0000
  I   I227      1.0  0.73127  0.63794  0.81941  1.0000
  I   I228      1.0  0.93033  0.58231  0.62921  1.0000
  I   I229      1.0  0.86068  0.22736  0.31295  1.0000
  I   I230      1.0  0.61892  0.31791  0.31336  1.0000
  I   I231      1.0  0.28299  0.03407  0.37660  1.0000
  I   I232      1.0  0.35112  0.67246  0.03892  1.0000
  I   I233      1.0  0.64487  0.40325  0.72821  1.0000
  I   I234      1.0  0.56965  0.68481  0.01313  1.0000
  I   I235      1.0  0.92028  0.99998  0.80302  1.0000
  I   I236      1.0  0.96620  0.52109  0.27771  1.0000
  I   I237      1.0  0.96916  0.46548  0.90464  1.0000
  I   I238      1.0  0.63352  0.04178  0.47724  1.0000
  I   I239      1.0  0.35497  0.31415  0.44487  1.0000
  I   I240      1.0  0.51415  0.52240  0.09275  1.0000
  I   I241      1.0  0.93210  0.65454  0.98146  1.0000
  I   I242      1.0  0.81487  0.93288  0.04118  1.0000
  I   I243      1.0  0.79173  0.76231  0.55549  1.0000
  I   I244      1.0  0.38502  0.19458  0.36018  1.0000
  I   I245      1.0  0.08867  0.98398  0.93428  1.0000
  I   I246      1.0  0.09998  0.14503  0.37546  1.0000
  I   I247      1.0  0.94573  0.77141  0.82959  1.0000
  I   I248      1.0  0.15803  0.92932  0.58546  1.0000
  I   I249      1.0  0.71010  0.18618  0.87992  1.0000
  I   I250      1.0  0.44381  0.00403  0.12572  1.0000
  I   I251      1.0  0.14261  0.54023  0.90467  1.0000
  I   I252      1.0  0.72222  0.83441  0.77437  1.0000
  I   I253      1.0  0.38130  0.29897  0.96809  1.0000
  I   I254      1.0  0.16590  0.30611  0.22290  1.0000
  I   I255      1.0  0.32214  0.01675  0.84932  1.0000
  I   I256      1.0  0.10059  0.86156  0.29960  1.0000
  I   I257      1.0  0.16890  0.65075  0.05061  1.0000
  I   I258      1.0  0.96593  0.29462  0.27842  1.0000
  I   I259      1.0  0.71710  0.64853  0.31961  1.0000
  I   I260      1.0  0.70354  0.84090  0.50833  1.0000
  I   I261      1.0  0.29648  0.39083  0.21474  1.0000
  I   I262      1.0  0.54523  0.84523  0.64580  1.0000
  I   I263      1.0  0.56220  0.78579  0.85595  1.0000
  I   I264      1.0  0.54264  0.97287  0.65338  1.0000
  I   I265      1.0  0.22067  0.27007  0.47806  1.0000
  I   I266      1.0  0.15328  0.33160  0.87071  1.0000
  I   I267      1.0  0.26721  0.54555  0.51556  1.0000
  I   I268      1.0  0.49461  0.71128  0.54475  1.0000
  I   I269      1.0  0.80736  0.40685  0.32432  1.0000
  I   I270      1.0  0.85320  0.47920  0.69510  1.0000
  I   I271      1.0  0.67296  0.42825  0.17144  1.0000
  I   I272      1.0  0.98144  0.09988  0.38744  1.0000
  I   I273      1.0  0.03510  0.16619  0.54398  1.0000
  I   I274      1.0  0.92224  0.81042  0.23048  1.0000
  I   I275      1.0  0.69173  0.55201  0.82889  1.0000
  I   I276      1.0  0.98363  0.52435  0.68578  1.0000
  I   I277      1.0  0.88479  0.23294  0.17513  1.0000
  I   I278      1.0  0.63957  0.24188  0.36499  1.0000
  I   I279      1.0  0.34963  0.02867  0.38555  1.0000
  I   I280      1.0  0.24425  0.77711  0.91370  1.0000
  I   I281      1.0  0.67157  0.48827  0.64886  1.0000
  I   I282      1.0  0.45407  0.78956  0.16473  1.0000
  I   I283      1.0  0.94147  0.99071  0.94567  1.0000
  I   I284      1.0  0.94995  0.52806  0.43770  1.0000
  I   I285      1.0  0.04487  0.49337  0.85379  1.0000
  I   I286      1.0  0.62900  0.11721  0.57797  1.0000
  I   I287      1.0  0.43938  0.27628  0.65293  1.0000
  I   I288      1.0  0.57984  0.45311  0.09400  1.0000
  I   I289      1.0  0.89809  0.62694  0.89284  1.0000
  I   I290      1.0  0.86991  0.02932  0.17390  1.0000
  I   I291      1.0  0.76415  0.00836  0.87629  1.0000
  I   I292      1.0  0.29193  0.23412  0.23918  1.0000
  I   I293      1.0  0.20511  0.91697  0.99970  1.0000
  I   I294      1.0  0.15285  0.10722  0.25878  1.0000
  I   I295      1.0  0.93082  0.83624  0.86233  1.0000
  I   I296      1.0  0.13805  0.88411  0.65990  1.0000
  I   I297      1.0  0.73696  0.10471  0.98414  1.0000
  I   I298      1.0  0.08767  0.86268  0.93009  1.0000
  I   I299      1.0  0.46256  0.93656  0.18158  1.0000
  I   I300      1.0  0.74565  0.94144  0.70152  1.0000
  I   I301      1.0  0.23411  0.11356  0.74244  1.0000
  I   I302      1.0  0.35513  0.27496  0.87077  1.0000
  I   I303      1.0  0.16250  0.28692  0.36662  1.0000
  I   I304      1.0  0.91847  0.35362  0.34970  1.0000
  I   I305      1.0  0.04756  0.89720  0.20375  1.0000
  I   I306      1.0  0.28346  0.68492  0.56192  1.0000
  I   I307      1.0  0.68272  0.72288  0.27165  1.0000
  I   I308      1.0  0.68010  0.86037  0.40002  1.0000
  I   I309      1.0  0.37251  0.48503  0.12621  1.0000
  I   I310      1.0  0.54260  0.90895  0.60659  1.0000
  I   I311      1.0  0.46828  0.92139  0.90482  1.0000
  I   I312      1.0  0.54280  0.78535  0.69863  1.0000
  I   I313      1.0  0.32605  0.50997  0.63946  1.0000
  I   I314      1.0  0.30022  0.26469  0.63064  1.0000
  I   I315      1.0  0.19790  0.38153  0.76207  1.0000
  I   I316      1.0  0.75201  0.59751  0.67754  1.0000
  I   I317      1.0  0.59912  0.68692  0.40713  1.0000
  I   I318      1.0  0.73309  0.50066  0.55684  1.0000
  I   I319      1.0  0.05161  0.10423  0.54045  1.0000
  I   I320      1.0  0.75683  0.40041  0.22021  1.0000
  I   I321      1.0  0.90671  0.09235  0.37348  1.0000
  I   I322      1.0  0.02373  0.72878  0.20696  1.0000
  I   I323      1.0  0.61588  0.60671  0.84679  1.0000
  I   I324      1.0  0.89024  0.64690  0.73110  1.0000
  I   I325      1.0  0.78029  0.28150  0.10968  1.0000
  I   I326      1.0  0.58984  0.27852  0.47391  1.0000
  I   I327      1.0  0.35852  0.97420  0.29385  1.0000
  I   I328      1.0  0.23868  0.80154  0.03544  1.0000
  I   I329      1.0  0.69462  0.42228  0.57948  1.0000
  I   I330      1.0  0.54422  0.73288  0.13072  1.0000
  I   I331      1.0  0.94574  0.41947  0.87648  1.0000
  I   I332      1.0  0.96826  0.92806  0.87835  1.0000
  I   I333      1.0  0.96415  0.58757  0.28969  1.0000
  I   I334      1.0  0.55627  0.41073  0.12229  1.0000
  I   I335      1.0  0.56602  0.09731  0.63403  1.0000
  I   I336      1.0  0.34072  0.31761  0.59236  1.0000
  I   I337      1.0  0.85521  0.69841  0.85506  1.0000
  I   I338      1.0  0.80430  0.03729  0.21502  1.0000
  I   I339      1.0  0.73839  0.97277  0.97568  1.0000
  I   I340      1.0  0.26783  0.17305  0.29381  1.0000
  I   I341      1.0  0.14131  0.97946  0.82642  1.0000
  I   I342      1.0  0.13736  0.05436  0.25815  1.0000
  I   I343      1.0  0.02135  0.74464  0.85192  1.0000
  I   I344      1.0  0.17431  0.86260  0.53296  1.0000
  I   I345      1.0  0.66899  0.18296  0.98450  1.0000
  I   I346      1.0  0.11236  0.86319  0.80653  1.0000
  I   I347      1.0  0.51512  0.88799  0.25616  1.0000
  I   I348      1.0  0.71267  0.89725  0.64378  1.0000
  I   I349      1.0  0.30027  0.05571  0.71679  1.0000
  I   I350      1.0  0.42894  0.18064  0.11504  1.0000
  I   I351      1.0  0.22746  0.38375  0.32293  1.0000
  I   I352      1.0  0.95288  0.38681  0.25771  1.0000
  I   I353      1.0  0.03956  0.87991  0.42264  1.0000
  I   I354      1.0  0.29990  0.63329  0.68234  1.0000
  I   I355      1.0  0.67275  0.74254  0.11937  1.0000
  I   I356      1.0  0.70833  0.91767  0.45221  1.0000
  I   I357      1.0  0.34553  0.41873  0.09391  1.0000
  I   I358      1.0  0.61848  0.88625  0.55606  1.0000
  I   I359      1.0  0.52214  0.94328  0.85339  1.0000
  I   I360      1.0  0.47434  0.80870  0.74597  1.0000
  I   I361      1.0  0.34163  0.45413  0.53785  1.0000
  I   I362      1.0  0.33431  0.19115  0.62346  1.0000
  I   I363      1.0  0.12798  0.40669  0.80751  1.0000
  I   I364      1.0  0.79303  0.58317  0.53632  1.0000
  I   I365      1.0  0.51059  0.77121  0.55493  1.0000
  I   I366      1.0  0.73590  0.52836  0.44251  1.0000
  I   I367      1.0  0.09358  0.12207  0.61649  1.0000
  I   I368      1.0  0.80890  0.43878  0.16309  1.0000
  I   I369      1.0  0.85881  0.13748  0.22296  1.0000
  I   I370      1.0  0.95279  0.73479  0.17746  1.0000
  I   I371      1.0  0.64375  0.65115  0.91536  1.0000
  I   I372      1.0  0.96173  0.59419  0.73573  1.0000
  I   I373      1.0  0.89709  0.26446  0.28702  1.0000
  I   I374      1.0  0.52481  0.27784  0.53337  1.0000
  I   I375      1.0  0.36143  0.95485  0.43398  1.0000
  I   I376      1.0  0.31846  0.76781  0.04620  1.0000
  I   I377      1.0  0.62695  0.47013  0.74546  1.0000
  I   I378      1.0  0.49715  0.71117  0.16057  1.0000
  I   I379      1.0  0.02098  0.37541  0.84786  1.0000
  I   I380      1.0  0.82704  0.15331  0.62181  1.0000
  I   I381      1.0  0.03533  0.51346  0.23027  1.0000
  I   I382      1.0  0.53129  0.37250  0.01874  1.0000
  I   I383      1.0  0.64994  0.05230  0.61756  1.0000
  I   I384      1.0  0.37668  0.27957  0.72396  1.0000
