data_image0
_chemical_formula_structural       Ti96I384
_chemical_formula_sum              "Ti96 I384"
_cell_length_a       82.5208
_cell_length_b       81.9968
_cell_length_c       40.0671
_cell_angle_alpha    88.7757
_cell_angle_beta     88.7757
_cell_angle_gamma    62.1586

_space_group_name_H-M_alt    "P 1"
_space_group_IT_number       1

loop_
  _space_group_symop_operation_xyz
  'x, y, z'

loop_
  _atom_site_type_symbol
  _atom_site_label
  _atom_site_symmetry_multiplicity
  _atom_site_fract_x
  _atom_site_fract_y
  _atom_site_fract_z
  _atom_site_occupancy
  Ti  Ti1       1.0  0.00871  0.08621  0.58206  1.0000
  Ti  Ti2       1.0  0.78117  0.48046  0.67096  1.0000
  Ti  Ti3       1.0  0.07256  0.95101  0.69151  1.0000
  Ti  Ti4       1.0  0.22792  0.81884  0.75261  1.0000
  Ti  Ti5       1.0  0.81980  0.32174  0.61736  1.0000
  Ti  Ti6       1.0  0.14579  0.26166  0.17823  1.0000
  Ti  Ti7       1.0  0.46934  0.71359  0.28960  1.0000
  Ti  Ti8       1.0  0.31779  0.68814  0.33814  1.0000
  Ti  Ti9       1.0  0.24380  0.87019  0.55045  1.0000
  Ti  Ti10      1.0  0.71995  0.13600  0.88240  1.0000
  Ti  Ti11      1.0  0.37209  0.76710  0.56441  1.0000
  Ti  Ti12      1.0  0.42388  0.15832  0.02681  1.0000
  Ti  Ti13      1.0  0.37685  0.51804  0.19886  1.0000
  Ti  Ti14      1.0  0.25538  0.77962  0.67520  1.0000
  Ti  Ti15      1.0  0.29506  0.65208  0.86075  1.0000
  Ti  Ti16      1.0  0.79051  0.97015  0.70017  1.0000
  Ti  Ti17      1.0  0.68384  0.04394  0.41244  1.0000
  Ti  Ti18      1.0  0.13009  0.49111  0.34545  1.0000
  Ti  Ti19      1.0  0.64076  0.94041  0.35440  1.0000
  Ti  Ti20      1.0  0.70277  0.93526  0.59551  1.0000
  Ti  Ti21      1.0  0.18744  0.30416  0.39618  1.0000
  Ti  Ti22      1.0  0.08266  0.51199  0.00624  1.0000
  Ti  Ti23      1.0  0.25809  0.86245  0.21163  1.0000
  Ti  Ti24      1.0  0.10654  0.16367  0.05241  1.0000
  Ti  Ti25      1.0  0.16093  0.05747  0.82987  1.0000
  Ti  Ti26      1.0  0.44819  0.28595  0.77345  1.0000
  Ti  Ti27      1.0  0.27295  0.80460  0.94564  1.0000
  Ti  Ti28      1.0  0.12216  0.38669  0.15706  1.0000
  Ti  Ti29      1.0  0.64163  0.69911  0.56395  1.0000
  Ti  Ti30      1.0  0.70651  0.66388  0.54462  1.0000
  Ti  Ti31      1.0  0.90015  0.06397  0.94498  1.0000
  Ti  Ti32      1.0  0.75757  0.55096  0.11822  1.0000
  Ti  Ti33      1.0  0.03588  0.85801  0.54670  1.0000
  Ti  Ti34      1.0  0.57369  0.65596  0.86861  1.0000
  Ti  Ti35      1.0  0.86214  0.58142  0.10514  1.0000
  Ti  Ti36      1.0  0.68622  0.52118  0.35156  1.0000
  Ti  Ti37      1.0  0.26893  0.07255  0.48004  1.0000
  Ti  Ti38      1.0  0.97266  0.41935  0.66885  1.0000
  Ti  Ti39      1.0  0.77792  0.12751  0.84065  1.0000
  Ti  Ti40      1.0  0.83293  0.10369  0.49681  1.0000
  Ti  Ti41      1.0  0.39118  0.80734  0.69733  1.0000
  Ti  Ti42      1.0  0.97805  0.65089  0.39813  1.0000
  Ti  Ti43      1.0  0.35047  0.76229  0.44277  1.0000
  Ti  Ti44      1.0  0.28528  0.45496  0.20287  1.0000
  Ti  Ti45      1.0  0.71502  0.35872  0.41005  1.0000
  Ti  Ti46      1.0  0.24158  0.39389  0.97671  1.0000
  Ti  Ti47      1.0  0.13983  0.78199  0.42132  1.0000
  Ti  Ti48      1.0  0.01401  0.38613  0.97086  1.0000
  Ti  Ti49      1.0  0.45034  0.63126  0.17977  1.0000
  Ti  Ti50      1.0  0.18758  0.62968  0.54310  1.0000
  Ti  Ti51      1.0  0.25790  0.89166  0.27223  1.0000
  Ti  Ti52      1.0  0.36518  0.15216  0.40662  1.0000
  Ti  Ti53      1.0  0.59629  0.74253  0.00238  1.0000
  Ti  Ti54      1.0  0.22269  0.66693  0.21314  1.0000
  Ti  Ti55      1.0  0.74500  0.68838  0.49566  1.0000
  Ti  Ti56      1.0  0.71068  0.42583  0.52011  1.0000
  Ti  Ti57      1.0  0.24584  0.85826  0.47016  1.0000
  Ti  Ti58      1.0  0.87596  0.69979  0.94536  1.0000
  Ti  Ti59      1.0  0.77403  0.94323  0.75976  1.0000
  Ti  Ti60      1.0  0.42706  0.85959  0.51384  1.0000
  Ti  Ti61      1.0  0.58650  0.15224  0.88794  1.0000
  Ti  Ti62      1.0  0.39362  0.47472  0.26656  1.0000
  Ti  Ti63      1.0  0.21301  0.24359  0.36498  1.0000
  Ti  Ti64      1.0  0.15542  0.45101  0.33100  1.0000
  Ti  Ti65      1.0  0.51516  0.31909  0.07751  1.0000
  Ti  Ti66      1.0  0.96755  0.00990  0.15808  1.0000
  Ti  Ti67      1.0  0.80923  0.79489  0.71211  1.0000
  Ti  Ti68      1.0  0.36852  0.32783  0.26834  1.0000
  Ti  Ti69      1.0  0.47014  0.31622  0.72182  1.0000
  Ti  Ti70      1.0  0.48469  0.81973  0.99039  1.0000
  Ti  Ti71      1.0  0.71864  0.72873  0.88273  1.0000
  Ti  Ti72      1.0  0.22030  0.78288  0.22822  1.0000
  Ti  Ti73      1.0  0.99524  0.19166  0.17014  1.0000
  Ti  Ti74      1.0  0.13371  0.06166  0.89800  1.0000
  Ti  Ti75      1.0  0.39843  0.64991  0.24356  1.0000
  Ti  Ti76      1.0  0.94584  0.55996  0.24972  1.0000
  Ti  Ti77      1.0  0.30183  0.62372  0.89577  1.0000
  Ti  Ti78      1.0  0.73295  0.07326  0.42793  1.0000
  Ti  Ti79      1.0  0.09152  0.72581  0.90003  1.0000
  Ti  Ti80      1.0  0.86538  0.91405  0.47808  1.0000
  Ti  Ti81      1.0  0.72687  0.36783  0.76717  1.0000
  Ti  Ti82      1.0  0.06071  0.14564  0.44667  1.0000
  Ti  Ti83      1.0  0.74397  0.35334  0.47843  1.0000
  Ti  Ti84      1.0  0.65390  0.54369  0.42068  1.0000
  Ti  Ti85      1.0  0.27634  0.06052  0.54171  1.0000
  Ti  Ti86      1.0  0.48254  0.70209  0.49857  1.0000
  Ti  Ti87      1.0  0.00761  0.78578  0.66587  1.0000
  Ti  Ti88      1.0  0.70346  0.91896  0.93183  1.0000
  Ti  Ti89      1.0  0.55881  0.46380  0.89899  1.0000
  Ti  Ti90      1.0  0.66400  0.04496  0.50678  1.0000
  Ti  Ti91      1.0  0.92720  0.39302  0.47571  1.0000
  Ti  Ti92      1.0  0.86166  0.24148  0.50904  1.0000
  Ti  Ti93      1.0  0.15078  0.17638  0.59925  1.0000
  Ti  Ti94      1.0  0.04491  0.38001  0.91903  1.0000
  Ti  Ti95      1.0  0.59456  0.73728  0.82317  1.0000
  Ti  Ti96      1.0  0.59228  0.94892  0.70483  1.0000
  I   I1        1.0  0.14560  0.75256  0.45750  1.0000
  I   I2        1.0  0.28258  0.85136  0.26518  1.0000
  I   I3        1.0  0.36446  0.67137  0.23991  1.0000
  I   I4        1.0  0.60741  0.76796  0.99458  1.0000
  I   I5        1.0  0.15057  0.22598  0.18204  1.0000
  I   I6        1.0  0.25493  0.66067  0.18634  1.0000
  I   I7        1.0  0.34320  0.64577  0.32046  1.0000
  I   I8        1.0  0.70904  0.39851  0.55636  1.0000
  I   I9        1.0  0.21803  0.86933  0.43507  1.0000
  I   I10       1.0  0.91634  0.04047  0.89416  1.0000
  I   I11       1.0  0.34110  0.79665  0.54450  1.0000
  I   I12       1.0  0.80626  0.32239  0.67322  1.0000
  I   I13       1.0  0.36954  0.54844  0.22699  1.0000
  I   I14       1.0  0.24740  0.22774  0.34591  1.0000
  I   I15       1.0  0.29975  0.65088  0.93501  1.0000
  I   I16       1.0  0.80285  0.10714  0.51993  1.0000
  I   I17       1.0  0.82664  0.24697  0.50016  1.0000
  I   I18       1.0  0.11668  0.48176  0.39856  1.0000
  I   I19       1.0  0.19657  0.23841  0.31390  1.0000
  I   I20       1.0  0.39536  0.77690  0.55856  1.0000
  I   I21       1.0  0.28589  0.69745  0.30734  1.0000
  I   I22       1.0  0.69993  0.36058  0.77981  1.0000
  I   I23       1.0  0.73247  0.92305  0.91191  1.0000
  I   I24       1.0  0.51740  0.80954  0.00614  1.0000
  I   I25       1.0  0.17358  0.07978  0.81204  1.0000
  I   I26       1.0  0.43925  0.66735  0.19024  1.0000
  I   I27       1.0  0.88605  0.57849  0.14759  1.0000
  I   I28       1.0  0.14454  0.35264  0.15578  1.0000
  I   I29       1.0  0.76335  0.05868  0.38946  1.0000
  I   I30       1.0  0.68473  0.66605  0.49647  1.0000
  I   I31       1.0  0.88084  0.87534  0.48671  1.0000
  I   I32       1.0  0.75105  0.34730  0.82039  1.0000
  I   I33       1.0  0.09078  0.75498  0.85887  1.0000
  I   I34       1.0  0.85562  0.56696  0.05422  1.0000
  I   I35       1.0  0.64098  0.57417  0.45674  1.0000
  I   I36       1.0  0.54499  0.68512  0.84474  1.0000
  I   I37       1.0  0.28047  0.02425  0.54681  1.0000
  I   I38       1.0  0.71015  0.10960  0.88182  1.0000
  I   I39       1.0  0.24584  0.05680  0.54265  1.0000
  I   I40       1.0  0.27259  0.43372  0.18629  1.0000
  I   I41       1.0  0.15727  0.65861  0.54448  1.0000
  I   I42       1.0  0.85606  0.10785  0.53737  1.0000
  I   I43       1.0  0.90563  0.67886  0.91369  1.0000
  I   I44       1.0  0.68430  0.35667  0.40017  1.0000
  I   I45       1.0  0.77844  0.32802  0.46202  1.0000
  I   I46       1.0  0.57302  0.74656  0.87340  1.0000
  I   I47       1.0  0.11480  0.78719  0.37165  1.0000
  I   I48       1.0  0.02671  0.39254  0.02869  1.0000
  I   I49       1.0  0.47295  0.61492  0.12962  1.0000
  I   I50       1.0  0.81719  0.46806  0.67783  1.0000
  I   I51       1.0  0.25298  0.87927  0.32695  1.0000
  I   I52       1.0  0.83127  0.92518  0.49099  1.0000
  I   I53       1.0  0.61619  0.72455  0.95145  1.0000
  I   I54       1.0  0.20780  0.69035  0.26927  1.0000
  I   I55       1.0  0.51304  0.67789  0.48025  1.0000
  I   I56       1.0  0.22258  0.28877  0.36104  1.0000
  I   I57       1.0  0.59731  0.76575  0.80363  1.0000
  I   I58       1.0  0.78912  0.11523  0.78318  1.0000
  I   I59       1.0  0.79386  0.90648  0.75811  1.0000
  I   I60       1.0  0.43351  0.85703  0.44301  1.0000
  I   I61       1.0  0.42562  0.44821  0.27251  1.0000
  I   I62       1.0  0.40237  0.52122  0.16416  1.0000
  I   I63       1.0  0.72250  0.90388  0.56326  1.0000
  I   I64       1.0  0.77690  0.98673  0.63726  1.0000
  I   I65       1.0  0.84328  0.06802  0.48830  1.0000
  I   I66       1.0  0.13802  0.40621  0.18536  1.0000
  I   I67       1.0  0.65181  0.92726  0.41563  1.0000
  I   I68       1.0  0.73334  0.92751  0.62755  1.0000
  I   I69       1.0  0.41606  0.28801  0.76272  1.0000
  I   I70       1.0  0.46994  0.81101  0.04203  1.0000
  I   I71       1.0  0.23251  0.85791  0.17917  1.0000
  I   I72       1.0  0.23691  0.78332  0.17179  1.0000
  I   I73       1.0  0.26245  0.81179  0.01026  1.0000
  I   I74       1.0  0.48080  0.29498  0.67093  1.0000
  I   I75       1.0  0.48064  0.27393  0.74615  1.0000
  I   I76       1.0  0.26698  0.63181  0.91383  1.0000
  I   I77       1.0  0.33396  0.62099  0.86374  1.0000
  I   I78       1.0  0.91444  0.06198  0.00228  1.0000
  I   I79       1.0  0.02259  0.83459  0.53250  1.0000
  I   I80       1.0  0.99412  0.10598  0.52973  1.0000
  I   I81       1.0  0.76071  0.54330  0.05392  1.0000
  I   I82       1.0  0.08051  0.12091  0.40398  1.0000
  I   I83       1.0  0.73606  0.34096  0.35375  1.0000
  I   I84       1.0  0.64915  0.53719  0.34829  1.0000
  I   I85       1.0  0.29011  0.06141  0.59945  1.0000
  I   I86       1.0  0.09680  0.38458  0.19164  1.0000
  I   I87       1.0  0.80532  0.13509  0.84550  1.0000
  I   I88       1.0  0.73662  0.12518  0.94767  1.0000
  I   I89       1.0  0.60362  0.65841  0.84819  1.0000
  I   I90       1.0  0.19103  0.61210  0.48936  1.0000
  I   I91       1.0  0.91515  0.39317  0.41513  1.0000
  I   I92       1.0  0.85774  0.26951  0.46394  1.0000
  I   I93       1.0  0.27826  0.45960  0.26767  1.0000
  I   I94       1.0  0.02286  0.41559  0.95365  1.0000
  I   I95       1.0  0.24634  0.40516  0.91519  1.0000
  I   I96       1.0  0.08236  0.53320  0.95355  1.0000
  I   I97       1.0  0.07774  0.92007  0.67776  1.0000
  I   I98       1.0  0.01826  0.10743  0.61691  1.0000
  I   I99       1.0  0.76239  0.46678  0.69173  1.0000
  I   I100      1.0  0.28121  0.78563  0.70712  1.0000
  I   I101      1.0  0.68859  0.92472  0.87280  1.0000
  I   I102      1.0  0.80258  0.35386  0.58504  1.0000
  I   I103      1.0  0.47355  0.68823  0.55651  1.0000
  I   I104      1.0  0.70455  0.69618  0.50090  1.0000
  I   I105      1.0  0.39587  0.83575  0.71259  1.0000
  I   I106      1.0  0.43846  0.16355  0.97633  1.0000
  I   I107      1.0  0.75317  0.16219  0.86107  1.0000
  I   I108      1.0  0.44159  0.12393  0.04537  1.0000
  I   I109      1.0  0.26256  0.68049  0.86001  1.0000
  I   I110      1.0  0.38009  0.45373  0.24033  1.0000
  I   I111      1.0  0.69458  0.96513  0.56561  1.0000
  I   I112      1.0  0.11820  0.46661  0.32058  1.0000
  I   I113      1.0  0.52743  0.34253  0.09356  1.0000
  I   I114      1.0  0.69073  0.05244  0.47504  1.0000
  I   I115      1.0  0.82459  0.79867  0.65577  1.0000
  I   I116      1.0  0.78435  0.83033  0.71110  1.0000
  I   I117      1.0  0.37866  0.35407  0.26930  1.0000
  I   I118      1.0  0.55809  0.96170  0.72219  1.0000
  I   I119      1.0  0.79190  0.77685  0.70665  1.0000
  I   I120      1.0  0.16807  0.77937  0.39216  1.0000
  I   I121      1.0  0.00690  0.21279  0.20091  1.0000
  I   I122      1.0  0.18420  0.02696  0.79417  1.0000
  I   I123      1.0  0.40977  0.64661  0.17444  1.0000
  I   I124      1.0  0.74883  0.65266  0.48325  1.0000
  I   I125      1.0  0.93128  0.53379  0.24009  1.0000
  I   I126      1.0  0.70711  0.07301  0.38664  1.0000
  I   I127      1.0  0.02536  0.89224  0.54106  1.0000
  I   I128      1.0  0.24825  0.79076  0.61431  1.0000
  I   I129      1.0  0.28578  0.83646  0.16971  1.0000
  I   I130      1.0  0.70000  0.48938  0.31668  1.0000
  I   I131      1.0  0.06626  0.17516  0.43178  1.0000
  I   I132      1.0  0.82792  0.58907  0.13627  1.0000
  I   I133      1.0  0.74335  0.12611  0.82961  1.0000
  I   I134      1.0  0.98768  0.38660  0.69416  1.0000
  I   I135      1.0  0.99306  0.97584  0.15581  1.0000
  I   I136      1.0  0.98616  0.64954  0.46153  1.0000
  I   I137      1.0  0.34021  0.17462  0.36940  1.0000
  I   I138      1.0  0.54244  0.45029  0.86132  1.0000
  I   I139      1.0  0.96000  0.39324  0.47092  1.0000
  I   I140      1.0  0.96076  0.01650  0.22386  1.0000
  I   I141      1.0  0.18220  0.14707  0.58391  1.0000
  I   I142      1.0  0.08063  0.36014  0.92877  1.0000
  I   I143      1.0  0.09687  0.95325  0.65018  1.0000
  I   I144      1.0  0.07576  0.53607  0.05030  1.0000
  I   I145      1.0  0.99182  0.07849  0.62740  1.0000
  I   I146      1.0  0.78139  0.46067  0.61676  1.0000
  I   I147      1.0  0.05698  0.95777  0.62115  1.0000
  I   I148      1.0  0.35493  0.16255  0.46701  1.0000
  I   I149      1.0  0.81124  0.30093  0.58416  1.0000
  I   I150      1.0  0.12977  0.29852  0.17348  1.0000
  I   I151      1.0  0.74043  0.70005  0.43650  1.0000
  I   I152      1.0  0.35305  0.67431  0.36031  1.0000
  I   I153      1.0  0.24741  0.82779  0.50489  1.0000
  I   I154      1.0  0.36789  0.78536  0.42241  1.0000
  I   I155      1.0  0.39242  0.73336  0.58823  1.0000
  I   I156      1.0  0.43696  0.82403  0.52307  1.0000
  I   I157      1.0  0.28860  0.63269  0.81203  1.0000
  I   I158      1.0  0.17582  0.31993  0.33727  1.0000
  I   I159      1.0  0.59263  0.17899  0.90907  1.0000
  I   I160      1.0  0.17495  0.42736  0.29104  1.0000
  I   I161      1.0  0.69390  0.02015  0.55027  1.0000
  I   I162      1.0  0.16390  0.42860  0.38432  1.0000
  I   I163      1.0  0.63779  0.91214  0.33080  1.0000
  I   I164      1.0  0.25588  0.35969  0.98430  1.0000
  I   I165      1.0  0.15658  0.31316  0.43204  1.0000
  I   I166      1.0  0.58447  0.96526  0.64291  1.0000
  I   I167      1.0  0.73952  0.35335  0.71043  1.0000
  I   I168      1.0  0.12668  0.15536  0.99810  1.0000
  I   I169      1.0  0.16923  0.05722  0.89800  1.0000
  I   I170      1.0  0.13657  0.05051  0.96181  1.0000
  I   I171      1.0  0.28026  0.79779  0.87733  1.0000
  I   I172      1.0  0.93317  0.56694  0.31071  1.0000
  I   I173      1.0  0.66128  0.66314  0.56694  1.0000
  I   I174      1.0  0.70369  0.67626  0.61113  1.0000
  I   I175      1.0  0.83167  0.12442  0.44782  1.0000
  I   I176      1.0  0.78300  0.55873  0.12687  1.0000
  I   I177      1.0  0.07251  0.71138  0.93186  1.0000
  I   I178      1.0  0.03066  0.14731  0.43458  1.0000
  I   I179      1.0  0.69520  0.38926  0.36609  1.0000
  I   I180      1.0  0.24938  0.06646  0.43993  1.0000
  I   I181      1.0  0.43794  0.16908  0.07970  1.0000
  I   I182      1.0  0.48421  0.70472  0.23248  1.0000
  I   I183      1.0  0.04461  0.77447  0.64900  1.0000
  I   I184      1.0  0.71428  0.88718  0.96381  1.0000
  I   I185      1.0  0.55653  0.45135  0.95888  1.0000
  I   I186      1.0  0.94316  0.66138  0.39971  1.0000
  I   I187      1.0  0.85823  0.24542  0.57418  1.0000
  I   I188      1.0  0.31371  0.45442  0.17665  1.0000
  I   I189      1.0  0.00507  0.81411  0.69830  1.0000
  I   I190      1.0  0.20804  0.41052  0.96472  1.0000
  I   I191      1.0  0.71965  0.00998  0.41063  1.0000
  I   I192      1.0  0.03627  0.97430  0.69184  1.0000
  I   I193      1.0  0.74722  0.03845  0.45294  1.0000
  I   I194      1.0  0.66632  0.94884  0.62106  1.0000
  I   I195      1.0  0.08994  0.94599  0.74596  1.0000
  I   I196      1.0  0.19878  0.81764  0.77195  1.0000
  I   I197      1.0  0.87483  0.66620  0.97369  1.0000
  I   I198      1.0  0.17050  0.25439  0.22277  1.0000
  I   I199      1.0  0.73763  0.57958  0.14887  1.0000
  I   I200      1.0  0.68462  0.44870  0.48262  1.0000
  I   I201      1.0  0.21453  0.86811  0.52488  1.0000
  I   I202      1.0  0.75522  0.98951  0.74504  1.0000
  I   I203      1.0  0.49106  0.32336  0.76493  1.0000
  I   I204      1.0  0.40152  0.14886  0.98835  1.0000
  I   I205      1.0  0.34914  0.53175  0.15869  1.0000
  I   I206      1.0  0.22980  0.85066  0.74674  1.0000
  I   I207      1.0  0.31442  0.67093  0.84021  1.0000
  I   I208      1.0  0.79767  0.95581  0.76505  1.0000
  I   I209      1.0  0.64229  0.03339  0.53076  1.0000
  I   I210      1.0  0.12208  0.69654  0.92003  1.0000
  I   I211      1.0  0.48920  0.79253  0.95363  1.0000
  I   I212      1.0  0.20886  0.22356  0.41412  1.0000
  I   I213      1.0  0.46088  0.26128  0.81802  1.0000
  I   I214      1.0  0.11651  0.49251  0.02472  1.0000
  I   I215      1.0  0.24278  0.93250  0.25685  1.0000
  I   I216      1.0  0.14860  0.18670  0.53324  1.0000
  I   I217      1.0  0.09873  0.06873  0.90096  1.0000
  I   I218      1.0  0.40458  0.65114  0.30901  1.0000
  I   I219      1.0  0.99241  0.16529  0.20856  1.0000
  I   I220      1.0  0.31099  0.58742  0.90243  1.0000
  I   I221      1.0  0.61778  0.71359  0.51047  1.0000
  I   I222      1.0  0.98251  0.54799  0.24841  1.0000
  I   I223      1.0  0.86431  0.07463  0.95514  1.0000
  I   I224      1.0  0.74866  0.52688  0.14154  1.0000
  I   I225      1.0  0.04365  0.84751  0.60963  1.0000
  I   I226      1.0  0.31408  0.72184  0.33750  1.0000
  I   I227      1.0  0.84399  0.61696  0.09537  1.0000
  I   I228      1.0  0.68592  0.54607  0.30394  1.0000
  I   I229      1.0  0.85211  0.72877  0.91726  1.0000
  I   I230      1.0  0.95489  0.44417  0.72789  1.0000
  I   I231      1.0  0.78199  0.11229  0.90001  1.0000
  I   I232      1.0  0.26899  0.74540  0.66586  1.0000
  I   I233      1.0  0.36339  0.81256  0.72822  1.0000
  I   I234      1.0  0.64670  0.06865  0.40704  1.0000
  I   I235      1.0  0.33271  0.74130  0.46944  1.0000
  I   I236      1.0  0.15314  0.18407  0.66456  1.0000
  I   I237      1.0  0.71808  0.63016  0.55997  1.0000
  I   I238      1.0  0.62448  0.70481  0.83016  1.0000
  I   I239      1.0  0.60422  0.91766  0.67733  1.0000
  I   I240      1.0  0.05674  0.36374  0.86061  1.0000
  I   I241      1.0  0.02168  0.05338  0.56233  1.0000
  I   I242      1.0  0.76509  0.51753  0.67296  1.0000
  I   I243      1.0  0.36486  0.33292  0.20150  1.0000
  I   I244      1.0  0.67600  0.93763  0.97261  1.0000
  I   I245      1.0  0.63092  0.71858  0.03601  1.0000
  I   I246      1.0  0.16470  0.25437  0.12499  1.0000
  I   I247      1.0  0.44557  0.70033  0.28906  1.0000
  I   I248      1.0  0.20949  0.26738  0.41042  1.0000
  I   I249      1.0  0.27464  0.83732  0.44165  1.0000
  I   I250      1.0  0.74540  0.94223  0.73157  1.0000
  I   I251      1.0  0.36805  0.75295  0.50420  1.0000
  I   I252      1.0  0.67387  0.93719  0.34263  1.0000
  I   I253      1.0  0.38456  0.48362  0.32668  1.0000
  I   I254      1.0  0.24017  0.77503  0.74254  1.0000
  I   I255      1.0  0.58328  0.16039  0.82534  1.0000
  I   I256      1.0  0.50741  0.30141  0.12580  1.0000
  I   I257      1.0  0.30047  0.03602  0.48390  1.0000
  I   I258      1.0  0.11443  0.52684  0.34952  1.0000
  I   I259      1.0  0.83440  0.78443  0.75765  1.0000
  I   I260      1.0  0.24637  0.40367  0.03435  1.0000
  I   I261      1.0  0.18835  0.33345  0.41521  1.0000
  I   I262      1.0  0.07641  0.48605  0.97233  1.0000
  I   I263      1.0  0.70584  0.70778  0.90803  1.0000
  I   I264      1.0  0.68028  0.50465  0.41405  1.0000
  I   I265      1.0  0.12375  0.07121  0.82230  1.0000
  I   I266      1.0  0.45493  0.35016  0.70963  1.0000
  I   I267      1.0  0.02183  0.17408  0.13338  1.0000
  I   I268      1.0  0.92976  0.02599  0.14478  1.0000
  I   I269      1.0  0.73339  0.09973  0.45855  1.0000
  I   I270      1.0  0.10166  0.40070  0.10335  1.0000
  I   I271      1.0  0.90776  0.08769  0.91886  1.0000
  I   I272      1.0  0.71639  0.40196  0.77182  1.0000
  I   I273      1.0  0.06191  0.84236  0.49807  1.0000
  I   I274      1.0  0.42529  0.77983  0.71509  1.0000
  I   I275      1.0  0.25129  0.78847  0.94619  1.0000
  I   I276      1.0  0.66404  0.53148  0.48833  1.0000
  I   I277      1.0  0.06866  0.12890  0.50417  1.0000
  I   I278      1.0  0.95917  0.44907  0.62574  1.0000
  I   I279      1.0  0.25201  0.48630  0.18897  1.0000
  I   I280      1.0  0.36787  0.11983  0.42593  1.0000
  I   I281      1.0  0.38899  0.81648  0.63258  1.0000
  I   I282      1.0  0.99187  0.61977  0.36665  1.0000
  I   I283      1.0  0.34770  0.75771  0.59081  1.0000
  I   I284      1.0  0.12611  0.17558  0.08199  1.0000
  I   I285      1.0  0.97755  0.80478  0.64034  1.0000
  I   I286      1.0  0.58236  0.73361  0.76280  1.0000
  I   I287      1.0  0.24565  0.78567  0.26437  1.0000
  I   I288      1.0  0.03795  0.35224  0.96319  1.0000
  I   I289      1.0  0.36692  0.74144  0.39154  1.0000
  I   I290      1.0  0.69017  0.02566  0.34719  1.0000
  I   I291      1.0  0.28360  0.90318  0.27631  1.0000
  I   I292      1.0  0.39668  0.15350  0.39296  1.0000
  I   I293      1.0  0.56827  0.76323  0.96317  1.0000
  I   I294      1.0  0.20924  0.65704  0.15935  1.0000
  I   I295      1.0  0.47798  0.73378  0.51744  1.0000
  I   I296      1.0  0.71133  0.44788  0.56391  1.0000
  I   I297      1.0  0.22599  0.89878  0.59821  1.0000
  I   I298      1.0  0.89277  0.71398  0.98933  1.0000
  I   I299      1.0  0.81756  0.97603  0.68748  1.0000
  I   I300      1.0  0.11791  0.18557  0.61093  1.0000
  I   I301      1.0  0.55066  0.16095  0.89638  1.0000
  I   I302      1.0  0.36001  0.50031  0.23766  1.0000
  I   I303      1.0  0.53307  0.29550  0.03227  1.0000
  I   I304      1.0  0.14125  0.48829  0.28086  1.0000
  I   I305      1.0  0.79281  0.94181  0.67399  1.0000
  I   I306      1.0  0.45110  0.75097  0.29121  1.0000
  I   I307      1.0  0.27583  0.09902  0.45055  1.0000
  I   I308      1.0  0.21309  0.63876  0.53720  1.0000
  I   I309      1.0  0.31774  0.66915  0.39707  1.0000
  I   I310      1.0  0.43665  0.63070  0.25352  1.0000
  I   I311      1.0  0.68982  0.74527  0.83961  1.0000
  I   I312      1.0  0.13490  0.81482  0.44493  1.0000
  I   I313      1.0  0.97467  0.21579  0.12535  1.0000
  I   I314      1.0  0.15464  0.02982  0.85666  1.0000
  I   I315      1.0  0.39827  0.61793  0.23673  1.0000
  I   I316      1.0  0.92754  0.59049  0.20959  1.0000
  I   I317      1.0  0.98505  0.02594  0.13245  1.0000
  I   I318      1.0  0.66319  0.71484  0.56153  1.0000
  I   I319      1.0  0.09063  0.75603  0.93513  1.0000
  I   I320      1.0  0.22981  0.81618  0.68390  1.0000
  I   I321      1.0  0.76206  0.67492  0.56038  1.0000
  I   I322      1.0  0.56904  0.65055  0.93603  1.0000
  I   I323      1.0  0.73788  0.37383  0.40985  1.0000
  I   I324      1.0  0.68372  0.54787  0.40000  1.0000
  I   I325      1.0  0.29443  0.08278  0.51506  1.0000
  I   I326      1.0  0.48661  0.69580  0.34846  1.0000
  I   I327      1.0  0.74114  0.34665  0.53935  1.0000
  I   I328      1.0  0.68883  0.16274  0.86578  1.0000
  I   I329      1.0  0.53358  0.49683  0.91452  1.0000
  I   I330      1.0  0.66070  0.07236  0.55215  1.0000
  I   I331      1.0  0.00825  0.77196  0.72581  1.0000
  I   I332      1.0  0.67831  0.01701  0.45628  1.0000
  I   I333      1.0  0.58318  0.61976  0.86383  1.0000
  I   I334      1.0  0.00909  0.38962  0.89675  1.0000
  I   I335      1.0  0.39955  0.30759  0.28821  1.0000
  I   I336      1.0  0.60976  0.96717  0.71841  1.0000
  I   I337      1.0  0.48099  0.59623  0.20465  1.0000
  I   I338      1.0  0.18942  0.60353  0.58351  1.0000
  I   I339      1.0  0.22624  0.89010  0.25248  1.0000
  I   I340      1.0  0.87811  0.93146  0.51755  1.0000
  I   I341      1.0  0.07194  0.19073  0.03600  1.0000
  I   I342      1.0  0.23693  0.63519  0.24619  1.0000
  I   I343      1.0  0.74056  0.71669  0.52593  1.0000
  I   I344      1.0  0.73597  0.43106  0.48644  1.0000
  I   I345      1.0  0.24628  0.89199  0.49814  1.0000
  I   I346      1.0  0.48077  0.85074  0.96377  1.0000
  I   I347      1.0  0.75855  0.94922  0.81959  1.0000
  I   I348      1.0  0.43475  0.88418  0.53690  1.0000
  I   I349      1.0  0.60289  0.13189  0.94211  1.0000
  I   I350      1.0  0.41012  0.50248  0.24753  1.0000
  I   I351      1.0  0.22583  0.82786  0.82242  1.0000
  I   I352      1.0  0.16933  0.46477  0.37333  1.0000
  I   I353      1.0  0.48133  0.34344  0.04219  1.0000
  I   I354      1.0  0.46081  0.71051  0.44724  1.0000
  I   I355      1.0  0.62659  0.97607  0.35840  1.0000
  I   I356      1.0  0.33769  0.33997  0.30169  1.0000
  I   I357      1.0  0.43642  0.31303  0.81912  1.0000
  I   I358      1.0  0.85546  0.30667  0.62492  1.0000
  I   I359      1.0  0.74725  0.72118  0.84274  1.0000
  I   I360      1.0  0.19332  0.79569  0.27874  1.0000
  I   I361      1.0  0.26998  0.83607  0.91197  1.0000
  I   I362      1.0  0.12407  0.09441  0.91101  1.0000
  I   I363      1.0  0.43387  0.31919  0.72250  1.0000
  I   I364      1.0  0.92927  0.36965  0.52622  1.0000
  I   I365      1.0  0.57661  0.72828  0.02593  1.0000
  I   I366      1.0  0.62728  0.71179  0.62236  1.0000
  I   I367      1.0  0.09914  0.70274  0.84819  1.0000
  I   I368      1.0  0.87252  0.92251  0.42160  1.0000
  I   I369      1.0  0.27688  0.87992  0.19031  1.0000
  I   I370      1.0  0.25059  0.84316  0.59574  1.0000
  I   I371      1.0  0.75409  0.37913  0.49925  1.0000
  I   I372      1.0  0.11206  0.13484  0.08065  1.0000
  I   I373      1.0  0.24541  0.09995  0.52508  1.0000
  I   I374      1.0  0.98128  0.40262  0.60537  1.0000
  I   I375      1.0  0.70742  0.35331  0.46927  1.0000
  I   I376      1.0  0.70974  0.75309  0.93158  1.0000
  I   I377      1.0  0.57615  0.47034  0.85055  1.0000
  I   I378      1.0  0.98533  0.67204  0.36570  1.0000
  I   I379      1.0  0.89584  0.42437  0.49658  1.0000
  I   I380      1.0  0.89325  0.21745  0.47952  1.0000
  I   I381      1.0  0.39691  0.86912  0.55086  1.0000
  I   I382      1.0  0.98294  0.38658  0.96093  1.0000
  I   I383      1.0  0.32268  0.79423  0.45127  1.0000
  I   I384      1.0  0.21557  0.75377  0.21280  1.0000
