data_image0
_chemical_formula_structural       Ti96I384
_chemical_formula_sum              "Ti96 I384"
_cell_length_a       61.42
_cell_length_b       61.3164
_cell_length_c       29.7986
_cell_angle_alpha    88.7757
_cell_angle_beta     88.7757
_cell_angle_gamma    62.1586

_space_group_name_H-M_alt    "P 1"
_space_group_IT_number       1

loop_
  _space_group_symop_operation_xyz
  'x, y, z'

loop_
  _atom_site_type_symbol
  _atom_site_label
  _atom_site_symmetry_multiplicity
  _atom_site_fract_x
  _atom_site_fract_y
  _atom_site_fract_z
  _atom_site_occupancy
  Ti  Ti1       1.0  0.63623  0.07909  0.53807  1.0000
  Ti  Ti2       1.0  0.49802  0.11989  0.43962  1.0000
  Ti  Ti3       1.0  0.96911  0.67284  0.96698  1.0000
  Ti  Ti4       1.0  0.44374  0.50309  0.54397  1.0000
  Ti  Ti5       1.0  0.21678  0.76905  0.19125  1.0000
  Ti  Ti6       1.0  0.50641  0.01939  0.04072  1.0000
  Ti  Ti7       1.0  0.05395  0.95637  0.28480  1.0000
  Ti  Ti8       1.0  0.12328  0.56333  0.17397  1.0000
  Ti  Ti9       1.0  0.03265  0.97301  0.57092  1.0000
  Ti  Ti10      1.0  0.93591  0.89215  0.90530  1.0000
  Ti  Ti11      1.0  0.43744  0.29621  0.76796  1.0000
  Ti  Ti12      1.0  0.17888  0.72693  0.59689  1.0000
  Ti  Ti13      1.0  0.35578  0.39563  0.53068  1.0000
  Ti  Ti14      1.0  0.20824  0.07048  0.59520  1.0000
  Ti  Ti15      1.0  0.54367  0.73573  0.90037  1.0000
  Ti  Ti16      1.0  0.92019  0.43599  0.66176  1.0000
  Ti  Ti17      1.0  0.22157  0.22534  0.40126  1.0000
  Ti  Ti18      1.0  0.71051  0.58166  0.64174  1.0000
  Ti  Ti19      1.0  0.76032  0.97515  0.26495  1.0000
  Ti  Ti20      1.0  0.36754  0.12744  0.78997  1.0000
  Ti  Ti21      1.0  0.60416  0.32829  0.17381  1.0000
  Ti  Ti22      1.0  0.51817  0.91405  0.38454  1.0000
  Ti  Ti23      1.0  0.61374  0.88695  0.03934  1.0000
  Ti  Ti24      1.0  0.39938  0.89927  0.50543  1.0000
  Ti  Ti25      1.0  0.12832  0.34146  0.99791  1.0000
  Ti  Ti26      1.0  0.90197  0.35835  0.35606  1.0000
  Ti  Ti27      1.0  0.37030  0.54651  0.89076  1.0000
  Ti  Ti28      1.0  0.74757  0.54391  0.95579  1.0000
  Ti  Ti29      1.0  0.98622  0.13919  0.11904  1.0000
  Ti  Ti30      1.0  0.85163  0.46549  0.13468  1.0000
  Ti  Ti31      1.0  0.72732  0.42177  0.51613  1.0000
  Ti  Ti32      1.0  0.66354  0.00805  0.83409  1.0000
  Ti  Ti33      1.0  0.37254  0.75008  0.23089  1.0000
  Ti  Ti34      1.0  0.61919  0.76639  0.63876  1.0000
  Ti  Ti35      1.0  0.79373  0.34045  0.12389  1.0000
  Ti  Ti36      1.0  0.08027  0.48807  0.80515  1.0000
  Ti  Ti37      1.0  0.08728  0.20379  0.30284  1.0000
  Ti  Ti38      1.0  0.51766  0.24309  0.62260  1.0000
  Ti  Ti39      1.0  0.43613  0.25248  0.04802  1.0000
  Ti  Ti40      1.0  0.80757  0.83185  0.43044  1.0000
  Ti  Ti41      1.0  0.61468  0.65372  0.34269  1.0000
  Ti  Ti42      1.0  0.89799  0.85542  0.67588  1.0000
  Ti  Ti43      1.0  0.28411  0.10793  0.02422  1.0000
  Ti  Ti44      1.0  0.78915  0.66736  0.22117  1.0000
  Ti  Ti45      1.0  0.51713  0.59882  0.71730  1.0000
  Ti  Ti46      1.0  0.21265  0.00433  0.05732  1.0000
  Ti  Ti47      1.0  0.88747  0.09986  0.09946  1.0000
  Ti  Ti48      1.0  0.33964  0.59573  0.08733  1.0000
  Ti  Ti49      1.0  0.71176  0.06606  0.54211  1.0000
  Ti  Ti50      1.0  0.75326  0.20192  0.05238  1.0000
  Ti  Ti51      1.0  0.52059  0.11574  0.31502  1.0000
  Ti  Ti52      1.0  0.40112  0.55751  0.51538  1.0000
  Ti  Ti53      1.0  0.16282  0.75151  0.15337  1.0000
  Ti  Ti54      1.0  0.45053  0.07203  0.13100  1.0000
  Ti  Ti55      1.0  0.06111  0.92754  0.18035  1.0000
  Ti  Ti56      1.0  0.14814  0.60386  0.13414  1.0000
  Ti  Ti57      1.0  0.06869  0.99062  0.67979  1.0000
  Ti  Ti58      1.0  0.32846  0.04558  0.96029  1.0000
  Ti  Ti59      1.0  0.96294  0.89079  0.01225  1.0000
  Ti  Ti60      1.0  0.24452  0.72103  0.55918  1.0000
  Ti  Ti61      1.0  0.49419  0.76421  0.87752  1.0000
  Ti  Ti62      1.0  0.31612  0.42837  0.41249  1.0000
  Ti  Ti63      1.0  0.17235  0.05196  0.58657  1.0000
  Ti  Ti64      1.0  0.67936  0.53951  0.63477  1.0000
  Ti  Ti65      1.0  0.94133  0.37718  0.68251  1.0000
  Ti  Ti66      1.0  0.61423  0.18177  0.67528  1.0000
  Ti  Ti67      1.0  0.70223  0.99830  0.25740  1.0000
  Ti  Ti68      1.0  0.37439  0.08369  0.73086  1.0000
  Ti  Ti69      1.0  0.57467  0.37320  0.06684  1.0000
  Ti  Ti70      1.0  0.51854  0.88008  0.45573  1.0000
  Ti  Ti71      1.0  0.59259  0.88490  0.14778  1.0000
  Ti  Ti72      1.0  0.86497  0.81884  0.11027  1.0000
  Ti  Ti73      1.0  0.31353  0.61070  0.84215  1.0000
  Ti  Ti74      1.0  0.17996  0.35609  0.95425  1.0000
  Ti  Ti75      1.0  0.86257  0.34738  0.41303  1.0000
  Ti  Ti76      1.0  0.91942  0.47342  0.12836  1.0000
  Ti  Ti77      1.0  0.68601  0.59728  0.96304  1.0000
  Ti  Ti78      1.0  0.02385  0.07977  0.16961  1.0000
  Ti  Ti79      1.0  0.40782  0.72546  0.30394  1.0000
  Ti  Ti80      1.0  0.65132  0.42485  0.47865  1.0000
  Ti  Ti81      1.0  0.69009  0.95713  0.89761  1.0000
  Ti  Ti82      1.0  0.67266  0.74096  0.71822  1.0000
  Ti  Ti83      1.0  0.79468  0.35075  0.99555  1.0000
  Ti  Ti84      1.0  0.11208  0.47684  0.87004  1.0000
  Ti  Ti85      1.0  0.13672  0.14862  0.18696  1.0000
  Ti  Ti86      1.0  0.55593  0.19354  0.74139  1.0000
  Ti  Ti87      1.0  0.49497  0.23213  0.02202  1.0000
  Ti  Ti88      1.0  0.83832  0.76433  0.41429  1.0000
  Ti  Ti89      1.0  0.61971  0.64455  0.45634  1.0000
  Ti  Ti90      1.0  0.93386  0.83545  0.57596  1.0000
  Ti  Ti91      1.0  0.47211  0.61318  0.76643  1.0000
  Ti  Ti92      1.0  0.94470  0.19180  0.80545  1.0000
  Ti  Ti93      1.0  0.74462  0.70929  0.15530  1.0000
  Ti  Ti94      1.0  0.37769  0.63545  0.10778  1.0000
  Ti  Ti95      1.0  0.15993  0.03268  0.94361  1.0000
  Ti  Ti96      1.0  0.80972  0.13479  0.12792  1.0000
  I   I1        1.0  0.77715  0.15786  0.19297  1.0000
  I   I2        1.0  0.54521  0.09937  0.39882  1.0000
  I   I3        1.0  0.60716  0.12431  0.50203  1.0000
  I   I4        1.0  0.16366  0.79354  0.14288  1.0000
  I   I5        1.0  0.48284  0.05698  0.98498  1.0000
  I   I6        1.0  0.46315  0.10762  0.16252  1.0000
  I   I7        1.0  0.11146  0.64756  0.13113  1.0000
  I   I8        1.0  0.17454  0.59330  0.05062  1.0000
  I   I9        1.0  0.08385  0.95666  0.60417  1.0000
  I   I10       1.0  0.88766  0.92829  0.87379  1.0000
  I   I11       1.0  0.47644  0.28152  0.82287  1.0000
  I   I12       1.0  0.23100  0.80152  0.16873  1.0000
  I   I13       1.0  0.36462  0.40400  0.43866  1.0000
  I   I14       1.0  0.21905  0.01410  0.61888  1.0000
  I   I15       1.0  0.52924  0.70963  0.85072  1.0000
  I   I16       1.0  0.97007  0.34756  0.75180  1.0000
  I   I17       1.0  0.65525  0.18094  0.70465  1.0000
  I   I18       1.0  0.75120  0.57517  0.68901  1.0000
  I   I19       1.0  0.39113  0.03774  0.72729  1.0000
  I   I20       1.0  0.40813  0.27343  0.76290  1.0000
  I   I21       1.0  0.60587  0.38401  0.01487  1.0000
  I   I22       1.0  0.57299  0.90226  0.99727  1.0000
  I   I23       1.0  0.60917  0.88635  0.22779  1.0000
  I   I24       1.0  0.53092  0.83786  0.41308  1.0000
  I   I25       1.0  0.20434  0.32154  0.89445  1.0000
  I   I26       1.0  0.91131  0.33493  0.44232  1.0000
  I   I27       1.0  0.31371  0.57059  0.87823  1.0000
  I   I28       1.0  0.65998  0.57677  0.00659  1.0000
  I   I29       1.0  0.06371  0.05073  0.12915  1.0000
  I   I30       1.0  0.92028  0.51270  0.16862  1.0000
  I   I31       1.0  0.60794  0.44220  0.52872  1.0000
  I   I32       1.0  0.72082  0.91186  0.87316  1.0000
  I   I33       1.0  0.39717  0.74248  0.38658  1.0000
  I   I34       1.0  0.75683  0.35068  0.05528  1.0000
  I   I35       1.0  0.13967  0.45632  0.94931  1.0000
  I   I36       1.0  0.58367  0.75564  0.61209  1.0000
  I   I37       1.0  0.06915  0.17351  0.32561  1.0000
  I   I38       1.0  0.49248  0.19558  0.98993  1.0000
  I   I39       1.0  0.11321  0.14293  0.12427  1.0000
  I   I40       1.0  0.61362  0.60727  0.46577  1.0000
  I   I41       1.0  0.91222  0.84742  0.49308  1.0000
  I   I42       1.0  0.85554  0.73654  0.34517  1.0000
  I   I43       1.0  0.38054  0.02305  0.95394  1.0000
  I   I44       1.0  0.70843  0.74647  0.20008  1.0000
  I   I45       1.0  0.51320  0.59362  0.81812  1.0000
  I   I46       1.0  0.25340  0.99473  0.00269  1.0000
  I   I47       1.0  0.84982  0.14075  0.16071  1.0000
  I   I48       1.0  0.38624  0.58771  0.13018  1.0000
  I   I49       1.0  0.73882  0.03108  0.60144  1.0000
  I   I50       1.0  0.47085  0.16730  0.45407  1.0000
  I   I51       1.0  0.50156  0.08549  0.50235  1.0000
  I   I52       1.0  0.48141  0.47748  0.58939  1.0000
  I   I53       1.0  0.19788  0.77454  0.27071  1.0000
  I   I54       1.0  0.42311  0.07393  0.19541  1.0000
  I   I55       1.0  0.05473  0.93259  0.36308  1.0000
  I   I56       1.0  0.14412  0.51459  0.17692  1.0000
  I   I57       1.0  0.04303  0.01571  0.59311  1.0000
  I   I58       1.0  0.95047  0.88129  0.82649  1.0000
  I   I59       1.0  0.91276  0.89956  0.99133  1.0000
  I   I60       1.0  0.18890  0.68188  0.61856  1.0000
  I   I61       1.0  0.33100  0.43213  0.33563  1.0000
  I   I62       1.0  0.27907  0.42538  0.38074  1.0000
  I   I63       1.0  0.24981  0.05584  0.61609  1.0000
  I   I64       1.0  0.90174  0.41085  0.61462  1.0000
  I   I65       1.0  0.93939  0.34089  0.63736  1.0000
  I   I66       1.0  0.60463  0.22490  0.62938  1.0000
  I   I67       1.0  0.66495  0.02635  0.30317  1.0000
  I   I68       1.0  0.33104  0.16140  0.84778  1.0000
  I   I69       1.0  0.60935  0.28786  0.22727  1.0000
  I   I70       1.0  0.51035  0.92614  0.48421  1.0000
  I   I71       1.0  0.64136  0.90306  0.99175  1.0000
  I   I72       1.0  0.88373  0.80932  0.18693  1.0000
  I   I73       1.0  0.34938  0.57638  0.78572  1.0000
  I   I74       1.0  0.85876  0.32663  0.49097  1.0000
  I   I75       1.0  0.86636  0.38972  0.43104  1.0000
  I   I76       1.0  0.77470  0.50408  0.90682  1.0000
  I   I77       1.0  0.66705  0.62473  0.88808  1.0000
  I   I78       1.0  0.03552  0.12589  0.15746  1.0000
  I   I79       1.0  0.43443  0.74190  0.26189  1.0000
  I   I80       1.0  0.64966  0.38804  0.44466  1.0000
  I   I81       1.0  0.66229  0.02965  0.91256  1.0000
  I   I82       1.0  0.62526  0.73152  0.71962  1.0000
  I   I83       1.0  0.79840  0.35464  0.19962  1.0000
  I   I84       1.0  0.15603  0.45397  0.82219  1.0000
  I   I85       1.0  0.14666  0.18570  0.16617  1.0000
  I   I86       1.0  0.51123  0.23959  0.72476  1.0000
  I   I87       1.0  0.46516  0.27024  0.08830  1.0000
  I   I88       1.0  0.76890  0.87206  0.40309  1.0000
  I   I89       1.0  0.60068  0.69493  0.39592  1.0000
  I   I90       1.0  0.89946  0.88467  0.73627  1.0000
  I   I91       1.0  0.50276  0.56261  0.72815  1.0000
  I   I92       1.0  0.94624  0.21228  0.72860  1.0000
  I   I93       1.0  0.77468  0.72406  0.11741  1.0000
  I   I94       1.0  0.36066  0.59544  0.01199  1.0000
  I   I95       1.0  0.15046  0.07356  0.89879  1.0000
  I   I96       1.0  0.82174  0.09207  0.14468  1.0000
  I   I97       1.0  0.00664  0.65047  0.90754  1.0000
  I   I98       1.0  0.73567  0.04727  0.46649  1.0000
  I   I99       1.0  0.48351  0.14079  0.25809  1.0000
  I   I100      1.0  0.45331  0.47136  0.47990  1.0000
  I   I101      1.0  0.35207  0.57079  0.53656  1.0000
  I   I102      1.0  0.25821  0.72587  0.17679  1.0000
  I   I103      1.0  0.03054  0.00528  0.31275  1.0000
  I   I104      1.0  0.10110  0.92712  0.13388  1.0000
  I   I105      1.0  0.98312  0.00203  0.57512  1.0000
  I   I106      1.0  0.23810  0.72776  0.64666  1.0000
  I   I107      1.0  0.97424  0.86305  0.08309  1.0000
  I   I108      1.0  0.27452  0.67521  0.54744  1.0000
  I   I109      1.0  0.55207  0.75224  0.81962  1.0000
  I   I110      1.0  0.40527  0.37486  0.53087  1.0000
  I   I111      1.0  0.17900  0.06898  0.66794  1.0000
  I   I112      1.0  0.66919  0.51075  0.69768  1.0000
  I   I113      1.0  0.96646  0.39600  0.63465  1.0000
  I   I114      1.0  0.21300  0.21823  0.48719  1.0000
  I   I115      1.0  0.73374  0.01856  0.30642  1.0000
  I   I116      1.0  0.67473  0.98098  0.21611  1.0000
  I   I117      1.0  0.41726  0.08754  0.74513  1.0000
  I   I118      1.0  0.47686  0.90596  0.39469  1.0000
  I   I119      1.0  0.49901  0.95454  0.33991  1.0000
  I   I120      1.0  0.83280  0.86511  0.13069  1.0000
  I   I121      1.0  0.35734  0.53174  0.97185  1.0000
  I   I122      1.0  0.13045  0.35860  0.91481  1.0000
  I   I123      1.0  0.94457  0.32104  0.33773  1.0000
  I   I124      1.0  0.87067  0.50368  0.10218  1.0000
  I   I125      1.0  0.72921  0.59174  0.00841  1.0000
  I   I126      1.0  0.04111  0.06655  0.24943  1.0000
  I   I127      1.0  0.32882  0.76301  0.18606  1.0000
  I   I128      1.0  0.75196  0.44154  0.48585  1.0000
  I   I129      1.0  0.72399  0.96179  0.93699  1.0000
  I   I130      1.0  0.09310  0.44189  0.83760  1.0000
  I   I131      1.0  0.62450  0.79853  0.58668  1.0000
  I   I132      1.0  0.83586  0.33305  0.95309  1.0000
  I   I133      1.0  0.40723  0.23884  0.00399  1.0000
  I   I134      1.0  0.53298  0.27521  0.63218  1.0000
  I   I135      1.0  0.52540  0.17404  0.72098  1.0000
  I   I136      1.0  0.89350  0.83161  0.74287  1.0000
  I   I137      1.0  0.83356  0.79496  0.49494  1.0000
  I   I138      1.0  0.62526  0.67728  0.27399  1.0000
  I   I139      1.0  0.51733  0.64445  0.71630  1.0000
  I   I140      1.0  0.90999  0.20268  0.86239  1.0000
  I   I141      1.0  0.74831  0.65865  0.21558  1.0000
  I   I142      1.0  0.35101  0.65742  0.04027  1.0000
  I   I143      1.0  0.11531  0.04328  0.97127  1.0000
  I   I144      1.0  0.91368  0.08033  0.16799  1.0000
  I   I145      1.0  0.66622  0.08777  0.59582  1.0000
  I   I146      1.0  0.54595  0.07402  0.27676  1.0000
  I   I147      1.0  0.93744  0.71500  0.91816  1.0000
  I   I148      1.0  0.42422  0.55037  0.59464  1.0000
  I   I149      1.0  0.13318  0.72863  0.13460  1.0000
  I   I150      1.0  0.50396  0.04880  0.11136  1.0000
  I   I151      1.0  0.09048  0.88232  0.20907  1.0000
  I   I152      1.0  0.17110  0.56146  0.18981  1.0000
  I   I153      1.0  0.04240  0.97648  0.48780  1.0000
  I   I154      1.0  0.23889  0.13224  0.98683  1.0000
  I   I155      1.0  0.41937  0.33496  0.81771  1.0000
  I   I156      1.0  0.13484  0.74037  0.56354  1.0000
  I   I157      1.0  0.51947  0.78471  0.92644  1.0000
  I   I158      1.0  0.15445  0.04996  0.50927  1.0000
  I   I159      1.0  0.45459  0.79940  0.91942  1.0000
  I   I160      1.0  0.64364  0.55526  0.58359  1.0000
  I   I161      1.0  0.20120  0.21371  0.33509  1.0000
  I   I162      1.0  0.67208  0.61073  0.68751  1.0000
  I   I163      1.0  0.70751  0.03551  0.20922  1.0000
  I   I164      1.0  0.32809  0.12712  0.73558  1.0000
  I   I165      1.0  0.53571  0.38329  0.01936  1.0000
  I   I166      1.0  0.56551  0.85888  0.46635  1.0000
  I   I167      1.0  0.63789  0.84648  0.99270  1.0000
  I   I168      1.0  0.35118  0.92090  0.53141  1.0000
  I   I169      1.0  0.17003  0.30544  0.01088  1.0000
  I   I170      1.0  0.09657  0.35834  0.06438  1.0000
  I   I171      1.0  0.38171  0.50314  0.84974  1.0000
  I   I172      1.0  0.93484  0.46295  0.04199  1.0000
  I   I173      1.0  0.00226  0.12125  0.03839  1.0000
  I   I174      1.0  0.81891  0.48248  0.19972  1.0000
  I   I175      1.0  0.74367  0.42053  0.60449  1.0000
  I   I176      1.0  0.67623  0.93692  0.95955  1.0000
  I   I177      1.0  0.43810  0.68449  0.35423  1.0000
  I   I178      1.0  0.69218  0.76283  0.66908  1.0000
  I   I179      1.0  0.83677  0.31129  0.09796  1.0000
  I   I180      1.0  0.06629  0.49890  0.90237  1.0000
  I   I181      1.0  0.05058  0.24866  0.26655  1.0000
  I   I182      1.0  0.56203  0.18406  0.82643  1.0000
  I   I183      1.0  0.39799  0.26950  0.10378  1.0000
  I   I184      1.0  0.78581  0.79826  0.41705  1.0000
  I   I185      1.0  0.57657  0.64646  0.38355  1.0000
  I   I186      1.0  0.97756  0.81563  0.53922  1.0000
  I   I187      1.0  0.97384  0.14611  0.79879  1.0000
  I   I188      1.0  0.77453  0.70913  0.25515  1.0000
  I   I189      1.0  0.55885  0.58167  0.74701  1.0000
  I   I190      1.0  0.21671  0.02659  0.12767  1.0000
  I   I191      1.0  0.79720  0.19095  0.09542  1.0000
  I   I192      1.0  0.34720  0.54974  0.09998  1.0000
  I   I193      1.0  0.66970  0.08655  0.48209  1.0000
  I   I194      1.0  0.78016  0.18943  0.97138  1.0000
  I   I195      1.0  0.95269  0.64115  0.97700  1.0000
  I   I196      1.0  0.46109  0.52785  0.49171  1.0000
  I   I197      1.0  0.30571  0.04000  0.89693  1.0000
  I   I198      1.0  0.46105  0.02884  0.08710  1.0000
  I   I199      1.0  0.04836  0.91389  0.11118  1.0000
  I   I200      1.0  0.17440  0.62198  0.17388  1.0000
  I   I201      1.0  0.04960  0.92650  0.55772  1.0000
  I   I202      1.0  0.94129  0.93399  0.04677  1.0000
  I   I203      1.0  0.62004  0.35888  0.12654  1.0000
  I   I204      1.0  0.17812  0.73587  0.68407  1.0000
  I   I205      1.0  0.31376  0.39900  0.49668  1.0000
  I   I206      1.0  0.14701  0.03250  0.62921  1.0000
  I   I207      1.0  0.47554  0.77765  0.79809  1.0000
  I   I208      1.0  0.87898  0.47665  0.69005  1.0000
  I   I209      1.0  0.26704  0.18809  0.39385  1.0000
  I   I210      1.0  0.69923  0.56231  0.57006  1.0000
  I   I211      1.0  0.73858  0.96062  0.20060  1.0000
  I   I212      1.0  0.40134  0.13691  0.82502  1.0000
  I   I213      1.0  0.64444  0.31498  0.23435  1.0000
  I   I214      1.0  0.53153  0.88290  0.31539  1.0000
  I   I215      1.0  0.64624  0.86545  0.10693  1.0000
  I   I216      1.0  0.42076  0.86921  0.57102  1.0000
  I   I217      1.0  0.10826  0.31445  0.96806  1.0000
  I   I218      1.0  0.86447  0.36019  0.30798  1.0000
  I   I219      1.0  0.36045  0.59478  0.88560  1.0000
  I   I220      1.0  0.70778  0.56037  0.90636  1.0000
  I   I221      1.0  0.98237  0.18317  0.09849  1.0000
  I   I222      1.0  0.83131  0.46875  0.05621  1.0000
  I   I223      1.0  0.69910  0.39603  0.50136  1.0000
  I   I224      1.0  0.70527  0.96915  0.80019  1.0000
  I   I225      1.0  0.36099  0.79122  0.26184  1.0000
  I   I226      1.0  0.69730  0.69718  0.68769  1.0000
  I   I227      1.0  0.77360  0.30947  0.12941  1.0000
  I   I228      1.0  0.02994  0.51056  0.80912  1.0000
  I   I229      1.0  0.17900  0.11281  0.16109  1.0000
  I   I230      1.0  0.53045  0.24416  0.53919  1.0000
  I   I231      1.0  0.52891  0.23505  0.96212  1.0000
  I   I232      1.0  0.82816  0.85764  0.46826  1.0000
  I   I233      1.0  0.65977  0.62602  0.39239  1.0000
  I   I234      1.0  0.90553  0.88365  0.60090  1.0000
  I   I235      1.0  0.27442  0.15267  0.05693  1.0000
  I   I236      1.0  0.81191  0.63917  0.29016  1.0000
  I   I237      1.0  0.53318  0.59103  0.63694  1.0000
  I   I238      1.0  0.24188  0.95982  0.08328  1.0000
  I   I239      1.0  0.84456  0.11794  0.05083  1.0000
  I   I240      1.0  0.37782  0.66894  0.15285  1.0000
  I   I241      1.0  0.64470  0.03594  0.49468  1.0000
  I   I242      1.0  0.53152  0.13110  0.49302  1.0000
  I   I243      1.0  0.98118  0.68863  0.03866  1.0000
  I   I244      1.0  0.40455  0.50607  0.57481  1.0000
  I   I245      1.0  0.13377  0.76429  0.23019  1.0000
  I   I246      1.0  0.55060  0.00929  0.01444  1.0000
  I   I247      1.0  0.05161  0.97943  0.19830  1.0000
  I   I248      1.0  0.11041  0.59906  0.23732  1.0000
  I   I249      1.0  0.03729  0.98123  0.72550  1.0000
  I   I250      1.0  0.96415  0.91479  0.93184  1.0000
  I   I251      1.0  0.44749  0.30841  0.69070  1.0000
  I   I252      1.0  0.27619  0.73592  0.54842  1.0000
  I   I253      1.0  0.34778  0.42828  0.59436  1.0000
  I   I254      1.0  0.21460  0.06642  0.51046  1.0000
  I   I255      1.0  0.46393  0.74496  0.90356  1.0000
  I   I256      1.0  0.90561  0.38533  0.73976  1.0000
  I   I257      1.0  0.22732  0.25792  0.34937  1.0000
  I   I258      1.0  0.71424  0.49902  0.59504  1.0000
  I   I259      1.0  0.79554  0.92988  0.26995  1.0000
  I   I260      1.0  0.37814  0.08009  0.63686  1.0000
  I   I261      1.0  0.56963  0.36046  0.22153  1.0000
  I   I262      1.0  0.55905  0.91674  0.40432  1.0000
  I   I263      1.0  0.61023  0.83760  0.12083  1.0000
  I   I264      1.0  0.42096  0.92648  0.50752  1.0000
  I   I265      1.0  0.18802  0.38808  0.91239  1.0000
  I   I266      1.0  0.88236  0.30192  0.37435  1.0000
  I   I267      1.0  0.41791  0.53998  0.88675  1.0000
  I   I268      1.0  0.73452  0.51526  0.00538  1.0000
  I   I269      1.0  0.99988  0.05980  0.13518  1.0000
  I   I270      1.0  0.96271  0.43765  0.14780  1.0000
  I   I271      1.0  0.68192  0.45884  0.48914  1.0000
  I   I272      1.0  0.64013  0.00374  0.76042  1.0000
  I   I273      1.0  0.40681  0.69556  0.23204  1.0000
  I   I274      1.0  0.68475  0.73896  0.79845  1.0000
  I   I275      1.0  0.78884  0.31167  0.96664  1.0000
  I   I276      1.0  0.08906  0.47286  0.72650  1.0000
  I   I277      1.0  0.08651  0.22224  0.38449  1.0000
  I   I278      1.0  0.55595  0.20119  0.64261  1.0000
  I   I279      1.0  0.45193  0.21301  0.10940  1.0000
  I   I280      1.0  0.88591  0.73183  0.44247  1.0000
  I   I281      1.0  0.62474  0.60974  0.30980  1.0000
  I   I282      1.0  0.85490  0.85818  0.65379  1.0000
  I   I283      1.0  0.30252  0.10590  0.94733  1.0000
  I   I284      1.0  0.77350  0.66233  0.11344  1.0000
  I   I285      1.0  0.46036  0.62683  0.67840  1.0000
  I   I286      1.0  0.18297  0.04834  0.00441  1.0000
  I   I287      1.0  0.77321  0.14808  0.06427  1.0000
  I   I288      1.0  0.33043  0.63617  0.14349  1.0000
  I   I289      1.0  0.59966  0.08119  0.58411  1.0000
  I   I290      1.0  0.73085  0.25078  0.06310  1.0000
  I   I291      1.0  0.47820  0.10930  0.37180  1.0000
  I   I292      1.0  0.40009  0.54085  0.43596  1.0000
  I   I293      1.0  0.17434  0.74294  0.06310  1.0000
  I   I294      1.0  0.51276  0.97291  0.03595  1.0000
  I   I295      1.0  0.09763  0.94939  0.27317  1.0000
  I   I296      1.0  0.08437  0.55293  0.20119  1.0000
  I   I297      1.0  0.05156  0.03559  0.70507  1.0000
  I   I298      1.0  0.28372  0.06183  0.01490  1.0000
  I   I299      1.0  0.96547  0.85167  0.95095  1.0000
  I   I300      1.0  0.20646  0.70357  0.51915  1.0000
  I   I301      1.0  0.59282  0.72144  0.90134  1.0000
  I   I302      1.0  0.30076  0.47068  0.45839  1.0000
  I   I303      1.0  0.20056  0.11609  0.59580  1.0000
  I   I304      1.0  0.71365  0.54150  0.70199  1.0000
  I   I305      1.0  0.93717  0.46752  0.63385  1.0000
  I   I306      1.0  0.58768  0.21458  0.75291  1.0000
  I   I307      1.0  0.78213  0.99087  0.21044  1.0000
  I   I308      1.0  0.37216  0.08946  0.82567  1.0000
  I   I309      1.0  0.58480  0.32359  0.10260  1.0000
  I   I310      1.0  0.48994  0.87154  0.51745  1.0000
  I   I311      1.0  0.54691  0.89826  0.16226  1.0000
  I   I312      1.0  0.90209  0.80956  0.05763  1.0000
  I   I313      1.0  0.29148  0.64519  0.90713  1.0000
  I   I314      1.0  0.21713  0.33819  0.00665  1.0000
  I   I315      1.0  0.91311  0.38836  0.31229  1.0000
  I   I316      1.0  0.85030  0.42518  0.13785  1.0000
  I   I317      1.0  0.77247  0.56572  0.93527  1.0000
  I   I318      1.0  0.98055  0.11879  0.20300  1.0000
  I   I319      1.0  0.38283  0.75346  0.14571  1.0000
  I   I320      1.0  0.77154  0.38420  0.49889  1.0000
  I   I321      1.0  0.66882  0.03975  0.77751  1.0000
  I   I322      1.0  0.64815  0.72808  0.58831  1.0000
  I   I323      1.0  0.80290  0.37089  0.06425  1.0000
  I   I324      1.0  0.12718  0.50898  0.90074  1.0000
  I   I325      1.0  0.13092  0.16922  0.29095  1.0000
  I   I326      1.0  0.59830  0.15001  0.71721  1.0000
  I   I327      1.0  0.53340  0.21312  0.07409  1.0000
  I   I328      1.0  0.83951  0.81301  0.36515  1.0000
  I   I329      1.0  0.58076  0.67382  0.50722  1.0000
  I   I330      1.0  0.94955  0.82122  0.67056  1.0000
  I   I331      1.0  0.45693  0.58578  0.81233  1.0000
  I   I332      1.0  0.33037  0.08563  0.04951  1.0000
  I   I333      1.0  0.70771  0.72101  0.10009  1.0000
  I   I334      1.0  0.41858  0.62372  0.06918  1.0000
  I   I335      1.0  0.15930  0.00426  0.88664  1.0000
  I   I336      1.0  0.90681  0.06033  0.04956  1.0000
  I   I337      1.0  0.73030  0.08919  0.59266  1.0000
  I   I338      1.0  0.70975  0.20830  0.02340  1.0000
  I   I339      1.0  0.54530  0.13854  0.29425  1.0000
  I   I340      1.0  0.40641  0.59601  0.48531  1.0000
  I   I341      1.0  0.20224  0.71225  0.17819  1.0000
  I   I342      1.0  0.41252  0.09539  0.07941  1.0000
  I   I343      1.0  0.02608  0.93442  0.25185  1.0000
  I   I344      1.0  0.11366  0.59017  0.09695  1.0000
  I   I345      1.0  0.10068  0.97427  0.74002  1.0000
  I   I346      1.0  0.34363  0.00373  0.00374  1.0000
  I   I347      1.0  0.00762  0.89448  0.01761  1.0000
  I   I348      1.0  0.19701  0.76308  0.57192  1.0000
  I   I349      1.0  0.53872  0.71537  0.97726  1.0000
  I   I350      1.0  0.36000  0.35532  0.57472  1.0000
  I   I351      1.0  0.13529  0.10478  0.59845  1.0000
  I   I352      1.0  0.70832  0.62012  0.59469  1.0000
  I   I353      1.0  0.94189  0.41352  0.74123  1.0000
  I   I354      1.0  0.63364  0.16528  0.59932  1.0000
  I   I355      1.0  0.73017  0.96099  0.32037  1.0000
  I   I356      1.0  0.37236  0.14059  0.70047  1.0000
  I   I357      1.0  0.55241  0.41261  0.11327  1.0000
  I   I358      1.0  0.40682  0.88079  0.41819  1.0000
  I   I359      1.0  0.58342  0.92838  0.09606  1.0000
  I   I360      1.0  0.82936  0.80596  0.09846  1.0000
  I   I361      1.0  0.27753  0.62909  0.78453  1.0000
  I   I362      1.0  0.14936  0.37884  0.01964  1.0000
  I   I363      1.0  0.81732  0.36674  0.39275  1.0000
  I   I364      1.0  0.89193  0.45487  0.18535  1.0000
  I   I365      1.0  0.65435  0.64715  0.98986  1.0000
  I   I366      1.0  0.93959  0.15366  0.11903  1.0000
  I   I367      1.0  0.34949  0.73873  0.30311  1.0000
  I   I368      1.0  0.63524  0.45233  0.41189  1.0000
  I   I369      1.0  0.64043  0.97838  0.86608  1.0000
  I   I370      1.0  0.62693  0.79184  0.71521  1.0000
  I   I371      1.0  0.76605  0.38228  0.93999  1.0000
  I   I372      1.0  0.08646  0.52730  0.80297  1.0000
  I   I373      1.0  0.08823  0.18754  0.20844  1.0000
  I   I374      1.0  0.47123  0.25222  0.60080  1.0000
  I   I375      1.0  0.45688  0.26499  0.96959  1.0000
  I   I376      1.0  0.82392  0.73327  0.45023  1.0000
  I   I377      1.0  0.64736  0.64674  0.52053  1.0000
  I   I378      1.0  0.92005  0.79858  0.58189  1.0000
  I   I379      1.0  0.45465  0.65789  0.80147  1.0000
  I   I380      1.0  0.96917  0.20796  0.85267  1.0000
  I   I381      1.0  0.83149  0.65793  0.19083  1.0000
  I   I382      1.0  0.29298  0.61840  0.06231  1.0000
  I   I383      1.0  0.17117  0.00362  0.03598  1.0000
  I   I384      1.0  0.90041  0.12850  0.05970  1.0000
