data_image0
_chemical_formula_structural       Ti96I384
_chemical_formula_sum              "Ti96 I384"
_cell_length_a       68.6323
_cell_length_b       68.4905
_cell_length_c       33.5668
_cell_angle_alpha    88.7757
_cell_angle_beta     88.7757
_cell_angle_gamma    62.1586

_space_group_name_H-M_alt    "P 1"
_space_group_IT_number       1

loop_
  _space_group_symop_operation_xyz
  'x, y, z'

loop_
  _atom_site_type_symbol
  _atom_site_label
  _atom_site_symmetry_multiplicity
  _atom_site_fract_x
  _atom_site_fract_y
  _atom_site_fract_z
  _atom_site_occupancy
  Ti  Ti1       1.0  0.09523  0.82531  0.86577  1.0000
  Ti  Ti2       1.0  0.96948  0.11637  0.10914  1.0000
  Ti  Ti3       1.0  0.50986  0.00450  0.92781  1.0000
  Ti  Ti4       1.0  0.87481  0.36947  0.24412  1.0000
  Ti  Ti5       1.0  0.44620  0.82787  0.28424  1.0000
  Ti  Ti6       1.0  0.81695  0.87221  0.11127  1.0000
  Ti  Ti7       1.0  0.96494  0.50319  0.52274  1.0000
  Ti  Ti8       1.0  0.19343  0.73758  0.41388  1.0000
  Ti  Ti9       1.0  0.21344  0.05414  0.92036  1.0000
  Ti  Ti10      1.0  0.03419  0.67716  0.48760  1.0000
  Ti  Ti11      1.0  0.25339  0.29567  0.49541  1.0000
  Ti  Ti12      1.0  0.10370  0.61467  0.94966  1.0000
  Ti  Ti13      1.0  0.88305  0.14536  0.49450  1.0000
  Ti  Ti14      1.0  0.03346  0.96476  0.70814  1.0000
  Ti  Ti15      1.0  0.88053  0.88836  0.36121  1.0000
  Ti  Ti16      1.0  0.09311  0.67768  0.51690  1.0000
  Ti  Ti17      1.0  0.31181  0.98793  0.44365  1.0000
  Ti  Ti18      1.0  0.54960  0.81608  0.79007  1.0000
  Ti  Ti19      1.0  0.53497  0.64803  0.70578  1.0000
  Ti  Ti20      1.0  0.23946  0.13428  0.64937  1.0000
  Ti  Ti21      1.0  0.21942  0.75325  0.36372  1.0000
  Ti  Ti22      1.0  0.60475  0.86451  0.32437  1.0000
  Ti  Ti23      1.0  0.39541  0.17387  0.39212  1.0000
  Ti  Ti24      1.0  0.23128  0.79226  0.75836  1.0000
  Ti  Ti25      1.0  0.45249  0.94939  0.40700  1.0000
  Ti  Ti26      1.0  0.33873  0.78192  0.94404  1.0000
  Ti  Ti27      1.0  0.73857  0.21735  0.72803  1.0000
  Ti  Ti28      1.0  0.73591  0.62782  0.24874  1.0000
  Ti  Ti29      1.0  0.04162  0.77756  0.30012  1.0000
  Ti  Ti30      1.0  0.41180  0.94393  0.87439  1.0000
  Ti  Ti31      1.0  0.22874  0.39751  0.17997  1.0000
  Ti  Ti32      1.0  0.04067  0.18473  0.71535  1.0000
  Ti  Ti33      1.0  0.12572  0.88246  0.65440  1.0000
  Ti  Ti34      1.0  0.30217  0.32092  0.34015  1.0000
  Ti  Ti35      1.0  0.72049  0.58864  0.51782  1.0000
  Ti  Ti36      1.0  0.14069  0.06990  0.09208  1.0000
  Ti  Ti37      1.0  0.16775  0.27005  0.37744  1.0000
  Ti  Ti38      1.0  0.39632  0.42532  0.11775  1.0000
  Ti  Ti39      1.0  0.93058  0.54320  0.28879  1.0000
  Ti  Ti40      1.0  0.20991  0.37300  0.67154  1.0000
  Ti  Ti41      1.0  0.47808  0.39499  0.59027  1.0000
  Ti  Ti42      1.0  0.17279  0.07280  0.41756  1.0000
  Ti  Ti43      1.0  0.28262  0.97267  0.11336  1.0000
  Ti  Ti44      1.0  0.77487  0.68577  0.54112  1.0000
  Ti  Ti45      1.0  0.16469  0.63357  0.35158  1.0000
  Ti  Ti46      1.0  0.77334  0.32515  0.48825  1.0000
  Ti  Ti47      1.0  0.34315  0.58498  0.61233  1.0000
  Ti  Ti48      1.0  0.79554  0.02380  0.25545  1.0000
  Ti  Ti49      1.0  0.00232  0.18431  0.41548  1.0000
  Ti  Ti50      1.0  0.10171  0.32822  0.72957  1.0000
  Ti  Ti51      1.0  0.92854  0.17259  0.14986  1.0000
  Ti  Ti52      1.0  0.77455  0.16119  0.44125  1.0000
  Ti  Ti53      1.0  0.40894  0.71587  0.44213  1.0000
  Ti  Ti54      1.0  0.81796  0.92132  0.16109  1.0000
  Ti  Ti55      1.0  0.96080  0.44337  0.54527  1.0000
  Ti  Ti56      1.0  0.86807  0.37310  0.95136  1.0000
  Ti  Ti57      1.0  0.26620  0.06265  0.86892  1.0000
  Ti  Ti58      1.0  0.64675  0.32986  0.62488  1.0000
  Ti  Ti59      1.0  0.41009  0.31385  0.00921  1.0000
  Ti  Ti60      1.0  0.17952  0.56802  0.92761  1.0000
  Ti  Ti61      1.0  0.91768  0.88064  0.42116  1.0000
  Ti  Ti62      1.0  0.85793  0.12818  0.42505  1.0000
  Ti  Ti63      1.0  0.00893  0.91883  0.71670  1.0000
  Ti  Ti64      1.0  0.58854  0.84679  0.82972  1.0000
  Ti  Ti65      1.0  0.71144  0.03050  0.87196  1.0000
  Ti  Ti66      1.0  0.45262  0.16380  0.99000  1.0000
  Ti  Ti67      1.0  0.49982  0.70771  0.71269  1.0000
  Ti  Ti68      1.0  0.60639  0.62430  0.81239  1.0000
  Ti  Ti69      1.0  0.28936  0.84897  0.89931  1.0000
  Ti  Ti70      1.0  0.31904  0.95807  0.20408  1.0000
  Ti  Ti71      1.0  0.38770  0.13874  0.37724  1.0000
  Ti  Ti72      1.0  0.19374  0.28965  0.05941  1.0000
  Ti  Ti73      1.0  0.77950  0.19041  0.77730  1.0000
  Ti  Ti74      1.0  0.49492  0.96858  0.43976  1.0000
  Ti  Ti75      1.0  0.36029  0.77454  0.81609  1.0000
  Ti  Ti76      1.0  0.35978  0.92914  0.82313  1.0000
  Ti  Ti77      1.0  0.69612  0.61222  0.22473  1.0000
  Ti  Ti78      1.0  0.99622  0.80226  0.27460  1.0000
  Ti  Ti79      1.0  0.68305  0.48331  0.04497  1.0000
  Ti  Ti80      1.0  0.91004  0.30362  0.29058  1.0000
  Ti  Ti81      1.0  0.98209  0.23473  0.74980  1.0000
  Ti  Ti82      1.0  0.34401  0.33847  0.45231  1.0000
  Ti  Ti83      1.0  0.72175  0.55762  0.62316  1.0000
  Ti  Ti84      1.0  0.14977  0.09506  0.14851  1.0000
  Ti  Ti85      1.0  0.12226  0.28205  0.36261  1.0000
  Ti  Ti86      1.0  0.44554  0.15924  0.88057  1.0000
  Ti  Ti87      1.0  0.99015  0.53290  0.31256  1.0000
  Ti  Ti88      1.0  0.61444  0.26116  0.38710  1.0000
  Ti  Ti89      1.0  0.45528  0.35652  0.66451  1.0000
  Ti  Ti90      1.0  0.14808  0.05416  0.46730  1.0000
  Ti  Ti91      1.0  0.19578  0.72888  0.74774  1.0000
  Ti  Ti92      1.0  0.32160  0.63635  0.98976  1.0000
  Ti  Ti93      1.0  0.98404  0.70941  0.09787  1.0000
  Ti  Ti94      1.0  0.75406  0.08811  0.23606  1.0000
  Ti  Ti95      1.0  0.73916  0.38080  0.52193  1.0000
  Ti  Ti96      1.0  0.32745  0.59135  0.47901  1.0000
  I   I1        1.0  0.36917  0.60165  0.60274  1.0000
  I   I2        1.0  0.92726  0.20568  0.09696  1.0000
  I   I3        1.0  0.02977  0.17346  0.47603  1.0000
  I   I4        1.0  0.36922  0.74047  0.47318  1.0000
  I   I5        1.0  0.77128  0.90498  0.11712  1.0000
  I   I6        1.0  0.85403  0.92244  0.19379  1.0000
  I   I7        1.0  0.15536  0.75774  0.44798  1.0000
  I   I8        1.0  0.85590  0.40225  0.00862  1.0000
  I   I9        1.0  0.29211  0.05400  0.80825  1.0000
  I   I10       1.0  0.05731  0.68035  0.55761  1.0000
  I   I11       1.0  0.26757  0.27419  0.42870  1.0000
  I   I12       1.0  0.48777  0.81330  0.29517  1.0000
  I   I13       1.0  0.85617  0.16891  0.43365  1.0000
  I   I14       1.0  0.01173  0.99605  0.75199  1.0000
  I   I15       1.0  0.84989  0.88246  0.32257  1.0000
  I   I16       1.0  0.12690  0.66897  0.56149  1.0000
  I   I17       1.0  0.42558  0.19741  0.03512  1.0000
  I   I18       1.0  0.58764  0.81950  0.75942  1.0000
  I   I19       1.0  0.24381  0.09706  0.62297  1.0000
  I   I20       1.0  0.28264  0.26459  0.53815  1.0000
  I   I21       1.0  0.23462  0.70859  0.36749  1.0000
  I   I22       1.0  0.40035  0.20910  0.42264  1.0000
  I   I23       1.0  0.38807  0.16073  0.46807  1.0000
  I   I24       1.0  0.35609  0.95246  0.23665  1.0000
  I   I25       1.0  0.48318  0.01020  0.45230  1.0000
  I   I26       1.0  0.38117  0.73933  0.77670  1.0000
  I   I27       1.0  0.81182  0.19838  0.75464  1.0000
  I   I28       1.0  0.77307  0.58964  0.27194  1.0000
  I   I29       1.0  0.02090  0.76630  0.23529  1.0000
  I   I30       1.0  0.39316  0.96927  0.93836  1.0000
  I   I31       1.0  0.92473  0.26541  0.25379  1.0000
  I   I32       1.0  0.00406  0.18331  0.74205  1.0000
  I   I33       1.0  0.70782  0.49928  0.05904  1.0000
  I   I34       1.0  0.69250  0.60220  0.46551  1.0000
  I   I35       1.0  0.11124  0.06926  0.04634  1.0000
  I   I36       1.0  0.34358  0.28442  0.33959  1.0000
  I   I37       1.0  0.09739  0.27018  0.32215  1.0000
  I   I38       1.0  0.96774  0.51004  0.33816  1.0000
  I   I39       1.0  0.15265  0.25224  0.31095  1.0000
  I   I40       1.0  0.45267  0.42715  0.63849  1.0000
  I   I41       1.0  0.21127  0.03906  0.42594  1.0000
  I   I42       1.0  0.25058  0.35007  0.66070  1.0000
  I   I43       1.0  0.62927  0.35626  0.68480  1.0000
  I   I44       1.0  0.79027  0.64469  0.51508  1.0000
  I   I45       1.0  0.16322  0.67328  0.33731  1.0000
  I   I46       1.0  0.69619  0.38985  0.51512  1.0000
  I   I47       1.0  0.35935  0.54618  0.64903  1.0000
  I   I48       1.0  0.80912  0.01181  0.18082  1.0000
  I   I49       1.0  0.95863  0.20042  0.41952  1.0000
  I   I50       1.0  0.89889  0.19967  0.19645  1.0000
  I   I51       1.0  0.97034  0.15342  0.10304  1.0000
  I   I52       1.0  0.89079  0.32290  0.22829  1.0000
  I   I53       1.0  0.42185  0.74549  0.42829  1.0000
  I   I54       1.0  0.78701  0.95421  0.20078  1.0000
  I   I55       1.0  0.98460  0.50995  0.58265  1.0000
  I   I56       1.0  0.19820  0.76572  0.29166  1.0000
  I   I57       1.0  0.18870  0.04379  0.87500  1.0000
  I   I58       1.0  0.03161  0.64612  0.45522  1.0000
  I   I59       1.0  0.41050  0.30760  0.92849  1.0000
  I   I60       1.0  0.19818  0.53883  0.87840  1.0000
  I   I61       1.0  0.86373  0.12180  0.50961  1.0000
  I   I62       1.0  0.86440  0.17916  0.54097  1.0000
  I   I63       1.0  0.04148  0.92399  0.67562  1.0000
  I   I64       1.0  0.02640  0.69851  0.41908  1.0000
  I   I65       1.0  0.70430  0.01320  0.81144  1.0000
  I   I66       1.0  0.46600  0.13375  0.04389  1.0000
  I   I67       1.0  0.49563  0.67446  0.66962  1.0000
  I   I68       1.0  0.20045  0.15468  0.61743  1.0000
  I   I69       1.0  0.24858  0.86409  0.92383  1.0000
  I   I70       1.0  0.31763  0.92956  0.25516  1.0000
  I   I71       1.0  0.41839  0.15240  0.32198  1.0000
  I   I72       1.0  0.17098  0.29179  0.99341  1.0000
  I   I73       1.0  0.78249  0.16766  0.71273  1.0000
  I   I74       1.0  0.37789  0.76345  0.97602  1.0000
  I   I75       1.0  0.36243  0.79903  0.89362  1.0000
  I   I76       1.0  0.72668  0.59565  0.16849  1.0000
  I   I77       1.0  0.72021  0.60941  0.30103  1.0000
  I   I78       1.0  0.11253  0.84150  0.91437  1.0000
  I   I79       1.0  0.10152  0.88355  0.59604  1.0000
  I   I80       1.0  0.23685  0.35590  0.17441  1.0000
  I   I81       1.0  0.04209  0.15560  0.66825  1.0000
  I   I82       1.0  0.36154  0.36388  0.47257  1.0000
  I   I83       1.0  0.69624  0.53640  0.65340  1.0000
  I   I84       1.0  0.15802  0.02765  0.12488  1.0000
  I   I85       1.0  0.14532  0.24941  0.42122  1.0000
  I   I86       1.0  0.46748  0.14890  0.81139  1.0000
  I   I87       1.0  0.91364  0.56521  0.22307  1.0000
  I   I88       1.0  0.18558  0.40825  0.71185  1.0000
  I   I89       1.0  0.42620  0.35215  0.61812  1.0000
  I   I90       1.0  0.11144  0.05422  0.43949  1.0000
  I   I91       1.0  0.16663  0.74425  0.69277  1.0000
  I   I92       1.0  0.33408  0.63110  0.06198  1.0000
  I   I93       1.0  0.78876  0.69224  0.60779  1.0000
  I   I94       1.0  0.78128  0.09903  0.20104  1.0000
  I   I95       1.0  0.81138  0.30141  0.46073  1.0000
  I   I96       1.0  0.36314  0.58147  0.43658  1.0000
  I   I97       1.0  0.54168  0.01179  0.93488  1.0000
  I   I98       1.0  0.06029  0.85624  0.83985  1.0000
  I   I99       1.0  0.97981  0.09692  0.03875  1.0000
  I   I100      1.0  0.87064  0.37959  0.16378  1.0000
  I   I101      1.0  0.77264  0.12919  0.38478  1.0000
  I   I102      1.0  0.44776  0.78965  0.27445  1.0000
  I   I103      1.0  0.99784  0.43035  0.58083  1.0000
  I   I104      1.0  0.98012  0.51294  0.45869  1.0000
  I   I105      1.0  0.20476  0.08980  0.96007  1.0000
  I   I106      1.0  0.11202  0.62367  0.02247  1.0000
  I   I107      1.0  0.99307  0.70634  0.51253  1.0000
  I   I108      1.0  0.08606  0.62246  0.88087  1.0000
  I   I109      1.0  0.91526  0.84498  0.37438  1.0000
  I   I110      1.0  0.84236  0.12991  0.35238  1.0000
  I   I111      1.0  0.01621  0.92067  0.79137  1.0000
  I   I112      1.0  0.58871  0.88023  0.78877  1.0000
  I   I113      1.0  0.70155  0.01152  0.93303  1.0000
  I   I114      1.0  0.34214  0.00239  0.44142  1.0000
  I   I115      1.0  0.49929  0.67550  0.77184  1.0000
  I   I116      1.0  0.50677  0.73393  0.76431  1.0000
  I   I117      1.0  0.61451  0.58924  0.76132  1.0000
  I   I118      1.0  0.63580  0.83501  0.27439  1.0000
  I   I119      1.0  0.32638  0.93840  0.13605  1.0000
  I   I120      1.0  0.19947  0.32389  0.03266  1.0000
  I   I121      1.0  0.75580  0.23823  0.77822  1.0000
  I   I122      1.0  0.41993  0.94926  0.45423  1.0000
  I   I123      1.0  0.34270  0.75600  0.87948  1.0000
  I   I124      1.0  0.39119  0.94737  0.80780  1.0000
  I   I125      1.0  0.75046  0.65388  0.28345  1.0000
  I   I126      1.0  0.03042  0.81009  0.34701  1.0000
  I   I127      1.0  0.16801  0.86093  0.63000  1.0000
  I   I128      1.0  0.83963  0.40395  0.26718  1.0000
  I   I129      1.0  0.02570  0.21953  0.77957  1.0000
  I   I130      1.0  0.13079  0.11520  0.06073  1.0000
  I   I131      1.0  0.32052  0.31889  0.41106  1.0000
  I   I132      1.0  0.68605  0.59249  0.58040  1.0000
  I   I133      1.0  0.90684  0.57513  0.33362  1.0000
  I   I134      1.0  0.42861  0.43265  0.12415  1.0000
  I   I135      1.0  0.41593  0.19950  0.89101  1.0000
  I   I136      1.0  0.16692  0.01674  0.42624  1.0000
  I   I137      1.0  0.63497  0.26157  0.31841  1.0000
  I   I138      1.0  0.45499  0.40391  0.52969  1.0000
  I   I139      1.0  0.20685  0.69087  0.72100  1.0000
  I   I140      1.0  0.28949  0.62875  0.02081  1.0000
  I   I141      1.0  0.96165  0.68973  0.08277  1.0000
  I   I142      1.0  0.75488  0.03449  0.24006  1.0000
  I   I143      1.0  0.77518  0.28659  0.52458  1.0000
  I   I144      1.0  0.30307  0.62503  0.43822  1.0000
  I   I145      1.0  0.08278  0.80501  0.91313  1.0000
  I   I146      1.0  0.95512  0.09149  0.14177  1.0000
  I   I147      1.0  0.51436  0.97127  0.87650  1.0000
  I   I148      1.0  0.78482  0.16794  0.51299  1.0000
  I   I149      1.0  0.43143  0.86482  0.24198  1.0000
  I   I150      1.0  0.81251  0.83710  0.12961  1.0000
  I   I151      1.0  0.95972  0.41129  0.50720  1.0000
  I   I152      1.0  0.16874  0.73393  0.34767  1.0000
  I   I153      1.0  0.26464  0.10548  0.86872  1.0000
  I   I154      1.0  0.29784  0.98951  0.05274  1.0000
  I   I155      1.0  0.26736  0.32517  0.48860  1.0000
  I   I156      1.0  0.19101  0.54378  0.99327  1.0000
  I   I157      1.0  0.89150  0.88885  0.27987  1.0000
  I   I158      1.0  0.96956  0.92203  0.73396  1.0000
  I   I159      1.0  0.94665  0.84416  0.45358  1.0000
  I   I160      1.0  0.56790  0.77931  0.74919  1.0000
  I   I161      1.0  0.31530  0.97332  0.37350  1.0000
  I   I162      1.0  0.51404  0.81483  0.82493  1.0000
  I   I163      1.0  0.55441  0.63883  0.63318  1.0000
  I   I164      1.0  0.65094  0.60242  0.82788  1.0000
  I   I165      1.0  0.22766  0.74643  0.44734  1.0000
  I   I166      1.0  0.60758  0.84007  0.38820  1.0000
  I   I167      1.0  0.36934  0.13313  0.30608  1.0000
  I   I168      1.0  0.23175  0.82853  0.78481  1.0000
  I   I169      1.0  0.44806  0.98332  0.46579  1.0000
  I   I170      1.0  0.53437  0.95571  0.46258  1.0000
  I   I171      1.0  0.75850  0.22384  0.67366  1.0000
  I   I172      1.0  0.35260  0.92028  0.75332  1.0000
  I   I173      1.0  0.96173  0.81081  0.22414  1.0000
  I   I174      1.0  0.37910  0.92629  0.90545  1.0000
  I   I175      1.0  0.26132  0.39102  0.23516  1.0000
  I   I176      1.0  0.07143  0.16156  0.77238  1.0000
  I   I177      1.0  0.70166  0.45158  0.99104  1.0000
  I   I178      1.0  0.37580  0.29990  0.47158  1.0000
  I   I179      1.0  0.76399  0.54549  0.61433  1.0000
  I   I180      1.0  0.16435  0.08114  0.22249  1.0000
  I   I181      1.0  0.14840  0.30778  0.34302  1.0000
  I   I182      1.0  0.48109  0.13240  0.92246  1.0000
  I   I183      1.0  0.03073  0.51316  0.30190  1.0000
  I   I184      1.0  0.63882  0.24385  0.45054  1.0000
  I   I185      1.0  0.51611  0.39244  0.61037  1.0000
  I   I186      1.0  0.17625  0.10563  0.39191  1.0000
  I   I187      1.0  0.32815  0.67075  0.96688  1.0000
  I   I188      1.0  0.78623  0.70185  0.48109  1.0000
  I   I189      1.0  0.16124  0.60652  0.41184  1.0000
  I   I190      1.0  0.74567  0.34090  0.42075  1.0000
  I   I191      1.0  0.13249  0.30197  0.68739  1.0000
  I   I192      1.0  0.83068  0.02809  0.27119  1.0000
  I   I193      1.0  0.03998  0.73896  0.32624  1.0000
  I   I194      1.0  0.07699  0.34049  0.79942  1.0000
  I   I195      1.0  0.48281  0.03141  0.86788  1.0000
  I   I196      1.0  0.89295  0.39855  0.24571  1.0000
  I   I197      1.0  0.68513  0.31246  0.60221  1.0000
  I   I198      1.0  0.81776  0.87643  0.03516  1.0000
  I   I199      1.0  0.96195  0.46771  0.46281  1.0000
  I   I200      1.0  0.85399  0.34412  0.93431  1.0000
  I   I201      1.0  0.21189  0.04360  0.99439  1.0000
  I   I202      1.0  0.43237  0.33534  0.00171  1.0000
  I   I203      1.0  0.28011  0.85628  0.82627  1.0000
  I   I204      1.0  0.14498  0.61539  0.92777  1.0000
  I   I205      1.0  0.91883  0.12120  0.53841  1.0000
  I   I206      1.0  0.02988  0.87657  0.71493  1.0000
  I   I207      1.0  0.88504  0.92517  0.36050  1.0000
  I   I208      1.0  0.11162  0.66702  0.43955  1.0000
  I   I209      1.0  0.27993  0.02876  0.42352  1.0000
  I   I210      1.0  0.52386  0.83733  0.73008  1.0000
  I   I211      1.0  0.54599  0.68419  0.70222  1.0000
  I   I212      1.0  0.26544  0.13946  0.59361  1.0000
  I   I213      1.0  0.31374  0.87095  0.90311  1.0000
  I   I214      1.0  0.62128  0.89066  0.34795  1.0000
  I   I215      1.0  0.35765  0.18684  0.35747  1.0000
  I   I216      1.0  0.26881  0.75915  0.77841  1.0000
  I   I217      1.0  0.43197  0.98611  0.36158  1.0000
  I   I218      1.0  0.32488  0.78442  0.77227  1.0000
  I   I219      1.0  0.72324  0.19634  0.68040  1.0000
  I   I220      1.0  0.68907  0.65274  0.25675  1.0000
  I   I221      1.0  0.08522  0.75125  0.30794  1.0000
  I   I222      1.0  0.43049  0.96791  0.84430  1.0000
  I   I223      1.0  0.23880  0.41769  0.12579  1.0000
  I   I224      1.0  0.00899  0.22711  0.68324  1.0000
  I   I225      1.0  0.12569  0.91830  0.67576  1.0000
  I   I226      1.0  0.35041  0.34638  0.37623  1.0000
  I   I227      1.0  0.71731  0.57400  0.69048  1.0000
  I   I228      1.0  0.12283  0.13301  0.18939  1.0000
  I   I229      1.0  0.16051  0.29296  0.44426  1.0000
  I   I230      1.0  0.41884  0.38631  0.08858  1.0000
  I   I231      1.0  0.90979  0.52195  0.28735  1.0000
  I   I232      1.0  0.06885  0.93979  0.75975  1.0000
  I   I233      1.0  0.47887  0.35171  0.59288  1.0000
  I   I234      1.0  0.15215  0.03626  0.53731  1.0000
  I   I235      1.0  0.24000  0.99762  0.10335  1.0000
  I   I236      1.0  0.96108  0.75210  0.08321  1.0000
  I   I237      1.0  0.17937  0.72909  0.81542  1.0000
  I   I238      1.0  0.73384  0.40341  0.45035  1.0000
  I   I239      1.0  0.32416  0.55417  0.47923  1.0000
  I   I240      1.0  0.79907  0.98434  0.28121  1.0000
  I   I241      1.0  0.01158  0.20861  0.36074  1.0000
  I   I242      1.0  0.91926  0.15347  0.08924  1.0000
  I   I243      1.0  0.49590  0.00374  0.99639  1.0000
  I   I244      1.0  0.73607  0.17168  0.47263  1.0000
  I   I245      1.0  0.42968  0.68769  0.49875  1.0000
  I   I246      1.0  0.81346  0.89108  0.20166  1.0000
  I   I247      1.0  0.93619  0.43541  0.59735  1.0000
  I   I248      1.0  0.18606  0.78476  0.41397  1.0000
  I   I249      1.0  0.22230  0.08202  0.85884  1.0000
  I   I250      1.0  0.37035  0.34772  0.01772  1.0000
  I   I251      1.0  0.21780  0.29128  0.50985  1.0000
  I   I252      1.0  0.13411  0.57013  0.92834  1.0000
  I   I253      1.0  0.87557  0.08560  0.40606  1.0000
  I   I254      1.0  0.98395  0.96435  0.69328  1.0000
  I   I255      1.0  0.94801  0.88532  0.37539  1.0000
  I   I256      1.0  0.70438  0.07077  0.84109  1.0000
  I   I257      1.0  0.29448  0.96978  0.48946  1.0000
  I   I258      1.0  0.62552  0.82975  0.86994  1.0000
  I   I259      1.0  0.48082  0.72989  0.65106  1.0000
  I   I260      1.0  0.58180  0.62709  0.87583  1.0000
  I   I261      1.0  0.20067  0.71630  0.47936  1.0000
  I   I262      1.0  0.56219  0.89099  0.30714  1.0000
  I   I263      1.0  0.34973  0.13368  0.39671  1.0000
  I   I264      1.0  0.22563  0.80033  0.68322  1.0000
  I   I265      1.0  0.49253  0.92463  0.43252  1.0000
  I   I266      1.0  0.30928  0.82738  0.97303  1.0000
  I   I267      1.0  0.78503  0.18613  0.85851  1.0000
  I   I268      1.0  0.65820  0.62406  0.18386  1.0000
  I   I269      1.0  0.96887  0.84450  0.29617  1.0000
  I   I270      1.0  0.32875  0.97138  0.82761  1.0000
  I   I271      1.0  0.19220  0.42459  0.20906  1.0000
  I   I272      1.0  0.96409  0.23895  0.82660  1.0000
  I   I273      1.0  0.12138  0.85525  0.70132  1.0000
  I   I274      1.0  0.26645  0.35207  0.34956  1.0000
  I   I275      1.0  0.74011  0.60752  0.55510  1.0000
  I   I276      1.0  0.17586  0.11681  0.14925  1.0000
  I   I277      1.0  0.31257  0.35706  0.50684  1.0000
  I   I278      1.0  0.37602  0.42235  0.18291  1.0000
  I   I279      1.0  0.97614  0.52657  0.24205  1.0000
  I   I280      1.0  0.58531  0.29965  0.40428  1.0000
  I   I281      1.0  0.42216  0.38392  0.71221  1.0000
  I   I282      1.0  0.12757  0.09840  0.43386  1.0000
  I   I283      1.0  0.27621  0.94770  0.06706  1.0000
  I   I284      1.0  0.99788  0.70325  0.16972  1.0000
  I   I285      1.0  0.12771  0.64428  0.31777  1.0000
  I   I286      1.0  0.78505  0.36307  0.49387  1.0000
  I   I287      1.0  0.30529  0.60821  0.54494  1.0000
  I   I288      1.0  0.73214  0.12527  0.28175  1.0000
  I   I289      1.0  0.01982  0.14746  0.38004  1.0000
  I   I290      1.0  0.09597  0.36868  0.72444  1.0000
  I   I291      1.0  0.95464  0.13263  0.19779  1.0000
  I   I292      1.0  0.76774  0.19917  0.41246  1.0000
  I   I293      1.0  0.40830  0.70372  0.37360  1.0000
  I   I294      1.0  0.85261  0.88216  0.12569  1.0000
  I   I295      1.0  0.92489  0.53182  0.50250  1.0000
  I   I296      1.0  0.88065  0.38861  0.89016  1.0000
  I   I297      1.0  0.29158  0.06055  0.92430  1.0000
  I   I298      1.0  0.62667  0.35500  0.56100  1.0000
  I   I299      1.0  0.08464  0.64193  0.50371  1.0000
  I   I300      1.0  0.20816  0.58313  0.93316  1.0000
  I   I301      1.0  0.91877  0.90239  0.48215  1.0000
  I   I302      1.0  0.90486  0.11989  0.41522  1.0000
  I   I303      1.0  0.19829  0.39445  0.60317  1.0000
  I   I304      1.0  0.58064  0.81110  0.85042  1.0000
  I   I305      1.0  0.08895  0.71873  0.51941  1.0000
  I   I306      1.0  0.47627  0.17939  0.96380  1.0000
  I   I307      1.0  0.57425  0.62995  0.74969  1.0000
  I   I308      1.0  0.25609  0.13988  0.71669  1.0000
  I   I309      1.0  0.25440  0.75680  0.35136  1.0000
  I   I310      1.0  0.31420  0.99349  0.15091  1.0000
  I   I311      1.0  0.43941  0.15054  0.41283  1.0000
  I   I312      1.0  0.17603  0.29219  0.12881  1.0000
  I   I313      1.0  0.70045  0.24897  0.72653  1.0000
  I   I314      1.0  0.45665  0.92039  0.35671  1.0000
  I   I315      1.0  0.39036  0.78273  0.77326  1.0000
  I   I316      1.0  0.34553  0.89990  0.84560  1.0000
  I   I317      1.0  0.75436  0.63201  0.17552  1.0000
  I   I318      1.0  0.98030  0.78047  0.31292  1.0000
  I   I319      1.0  0.67520  0.46971  0.11561  1.0000
  I   I320      1.0  0.88428  0.35211  0.32229  1.0000
  I   I321      1.0  0.97514  0.27606  0.75842  1.0000
  I   I322      1.0  0.31501  0.33959  0.28172  1.0000
  I   I323      1.0  0.72400  0.54468  0.52211  1.0000
  I   I324      1.0  0.11969  0.07161  0.16191  1.0000
  I   I325      1.0  0.20432  0.26828  0.33531  1.0000
  I   I326      1.0  0.42320  0.13682  0.86398  1.0000
  I   I327      1.0  0.96223  0.57434  0.29655  1.0000
  I   I328      1.0  0.18297  0.35545  0.67892  1.0000
  I   I329      1.0  0.48421  0.36857  0.68189  1.0000
  I   I330      1.0  0.16458  0.06224  0.34650  1.0000
  I   I331      1.0  0.20445  0.61936  0.33226  1.0000
  I   I332      1.0  0.63051  0.30142  0.62335  1.0000
  I   I333      1.0  0.73279  0.70225  0.54078  1.0000
  I   I334      1.0  0.77268  0.06990  0.30606  1.0000
  I   I335      1.0  0.76140  0.33522  0.56125  1.0000
  I   I336      1.0  0.36095  0.56056  0.54121  1.0000
  I   I337      1.0  0.12179  0.81577  0.80141  1.0000
  I   I338      1.0  0.06926  0.32817  0.69780  1.0000
  I   I339      1.0  0.01034  0.09887  0.13695  1.0000
  I   I340      1.0  0.87750  0.30435  0.34015  1.0000
  I   I341      1.0  0.42443  0.84076  0.35040  1.0000
  I   I342      1.0  0.79785  0.93676  0.09107  1.0000
  I   I343      1.0  0.94439  0.48689  0.57699  1.0000
  I   I344      1.0  0.90918  0.34159  0.96172  1.0000
  I   I345      1.0  0.25711  0.02338  0.90108  1.0000
  I   I346      1.0  0.27547  0.98318  0.20351  1.0000
  I   I347      1.0  0.40423  0.28770  0.05996  1.0000
  I   I348      1.0  0.06406  0.62001  0.97621  1.0000
  I   I349      1.0  0.87156  0.88055  0.44818  1.0000
  I   I350      1.0  0.82323  0.12269  0.45417  1.0000
  I   I351      1.0  0.04576  0.98194  0.64988  1.0000
  I   I352      1.0  0.55526  0.87001  0.87360  1.0000
  I   I353      1.0  0.75278  0.01276  0.87998  1.0000
  I   I354      1.0  0.42449  0.15165  0.96014  1.0000
  I   I355      1.0  0.52252  0.61874  0.71777  1.0000
  I   I356      1.0  0.60972  0.65927  0.79002  1.0000
  I   I357      1.0  0.29774  0.80444  0.89176  1.0000
  I   I358      1.0  0.19725  0.80729  0.81524  1.0000
  I   I359      1.0  0.41493  0.10403  0.41358  1.0000
  I   I360      1.0  0.23198  0.25439  0.06926  1.0000
  I   I361      1.0  0.72951  0.20681  0.80944  1.0000
  I   I362      1.0  0.49432  0.97231  0.36420  1.0000
  I   I363      1.0  0.31794  0.77375  0.00281  1.0000
  I   I364      1.0  0.44056  0.90765  0.91559  1.0000
  I   I365      1.0  0.69436  0.57933  0.25946  1.0000
  I   I366      1.0  0.03279  0.80821  0.23224  1.0000
  I   I367      1.0  0.65111  0.50418  0.99231  1.0000
  I   I368      1.0  0.93907  0.30842  0.34332  1.0000
  I   I369      1.0  0.94694  0.24598  0.70235  1.0000
  I   I370      1.0  0.29447  0.29366  0.28936  1.0000
  I   I371      1.0  0.75076  0.56393  0.45677  1.0000
  I   I372      1.0  0.18608  0.06002  0.11082  1.0000
  I   I373      1.0  0.09722  0.30655  0.42253  1.0000
  I   I374      1.0  0.36917  0.44957  0.06405  1.0000
  I   I375      1.0  0.98955  0.54878  0.39045  1.0000
  I   I376      1.0  0.59736  0.23546  0.37394  1.0000
  I   I377      1.0  0.46701  0.31756  0.68646  1.0000
  I   I378      1.0  0.16711  0.07992  0.50750  1.0000
  I   I379      1.0  0.21679  0.75524  0.72916  1.0000
  I   I380      1.0  0.34524  0.60076  0.94501  1.0000
  I   I381      1.0  0.01226  0.69235  0.03966  1.0000
  I   I382      1.0  0.72287  0.09119  0.18878  1.0000
  I   I383      1.0  0.73133  0.40876  0.57429  1.0000
  I   I384      1.0  0.31251  0.61345  0.66159  1.0000
