data_image0
_chemical_formula_structural       Ti96I384
_chemical_formula_sum              "Ti96 I384"
_cell_length_a       35.5983
_cell_length_b       35.1817
_cell_length_c       22.0617
_cell_angle_alpha    88.7757
_cell_angle_beta     88.7757
_cell_angle_gamma    62.1586

_space_group_name_H-M_alt    "P 1"
_space_group_IT_number       1

loop_
  _space_group_symop_operation_xyz
  'x, y, z'

loop_
  _atom_site_type_symbol
  _atom_site_label
  _atom_site_symmetry_multiplicity
  _atom_site_fract_x
  _atom_site_fract_y
  _atom_site_fract_z
  _atom_site_occupancy
  Ti  Ti1       1.0  0.15359  0.09974  0.25558  1.0000
  Ti  Ti2       1.0  0.15339  0.10340  0.58181  1.0000
  Ti  Ti3       1.0  0.15367  0.09189  0.92557  1.0000
  Ti  Ti4       1.0  0.15377  0.34736  0.24988  1.0000
  Ti  Ti5       1.0  0.15081  0.34178  0.57585  1.0000
  Ti  Ti6       1.0  0.16115  0.33637  0.90716  1.0000
  Ti  Ti7       1.0  0.16344  0.59173  0.23973  1.0000
  Ti  Ti8       1.0  0.16549  0.59059  0.57403  1.0000
  Ti  Ti9       1.0  0.15983  0.58888  0.90966  1.0000
  Ti  Ti10      1.0  0.16664  0.83765  0.26131  1.0000
  Ti  Ti11      1.0  0.16666  0.83694  0.58538  1.0000
  Ti  Ti12      1.0  0.17125  0.83191  0.92517  1.0000
  Ti  Ti13      1.0  0.40734  0.09343  0.24670  1.0000
  Ti  Ti14      1.0  0.40961  0.08871  0.58233  1.0000
  Ti  Ti15      1.0  0.40817  0.09098  0.90960  1.0000
  Ti  Ti16      1.0  0.42277  0.34531  0.24089  1.0000
  Ti  Ti17      1.0  0.41913  0.34564  0.57895  1.0000
  Ti  Ti18      1.0  0.41463  0.34412  0.89723  1.0000
  Ti  Ti19      1.0  0.41540  0.58240  0.25410  1.0000
  Ti  Ti20      1.0  0.40934  0.59381  0.58110  1.0000
  Ti  Ti21      1.0  0.40840  0.58064  0.92060  1.0000
  Ti  Ti22      1.0  0.39389  0.85346  0.25556  1.0000
  Ti  Ti23      1.0  0.40038  0.84703  0.58662  1.0000
  Ti  Ti24      1.0  0.39648  0.85402  0.91804  1.0000
  Ti  Ti25      1.0  0.65691  0.09396  0.24730  1.0000
  Ti  Ti26      1.0  0.65958  0.08748  0.57960  1.0000
  Ti  Ti27      1.0  0.65245  0.08528  0.91482  1.0000
  Ti  Ti28      1.0  0.65928  0.34860  0.25471  1.0000
  Ti  Ti29      1.0  0.66781  0.34650  0.59337  1.0000
  Ti  Ti30      1.0  0.65331  0.34669  0.92015  1.0000
  Ti  Ti31      1.0  0.65569  0.60361  0.24810  1.0000
  Ti  Ti32      1.0  0.63841  0.60628  0.58480  1.0000
  Ti  Ti33      1.0  0.64923  0.59374  0.92234  1.0000
  Ti  Ti34      1.0  0.65825  0.83652  0.24723  1.0000
  Ti  Ti35      1.0  0.66018  0.83481  0.59123  1.0000
  Ti  Ti36      1.0  0.66740  0.83056  0.92300  1.0000
  Ti  Ti37      1.0  0.90866  0.09341  0.25245  1.0000
  Ti  Ti38      1.0  0.90853  0.09408  0.58413  1.0000
  Ti  Ti39      1.0  0.91124  0.09371  0.91611  1.0000
  Ti  Ti40      1.0  0.91583  0.34429  0.23807  1.0000
  Ti  Ti41      1.0  0.92337  0.33762  0.57549  1.0000
  Ti  Ti42      1.0  0.91897  0.33264  0.90453  1.0000
  Ti  Ti43      1.0  0.91453  0.58130  0.26290  1.0000
  Ti  Ti44      1.0  0.90945  0.58273  0.59038  1.0000
  Ti  Ti45      1.0  0.91088  0.58166  0.92687  1.0000
  Ti  Ti46      1.0  0.89882  0.83605  0.25578  1.0000
  Ti  Ti47      1.0  0.90728  0.83438  0.58778  1.0000
  Ti  Ti48      1.0  0.90730  0.83869  0.92177  1.0000
  Ti  Ti49      1.0  0.08283  0.15968  0.08515  1.0000
  Ti  Ti50      1.0  0.07447  0.17372  0.41681  1.0000
  Ti  Ti51      1.0  0.08440  0.16372  0.76046  1.0000
  Ti  Ti52      1.0  0.09105  0.40575  0.07397  1.0000
  Ti  Ti53      1.0  0.08824  0.41065  0.41036  1.0000
  Ti  Ti54      1.0  0.09748  0.40537  0.74919  1.0000
  Ti  Ti55      1.0  0.08808  0.65843  0.06852  1.0000
  Ti  Ti56      1.0  0.09881  0.65728  0.41282  1.0000
  Ti  Ti57      1.0  0.09668  0.65105  0.73690  1.0000
  Ti  Ti58      1.0  0.10381  0.89294  0.09036  1.0000
  Ti  Ti59      1.0  0.08924  0.90262  0.43245  1.0000
  Ti  Ti60      1.0  0.09547  0.89989  0.76182  1.0000
  Ti  Ti61      1.0  0.34456  0.15754  0.07140  1.0000
  Ti  Ti62      1.0  0.34978  0.15896  0.41178  1.0000
  Ti  Ti63      1.0  0.35513  0.15650  0.74747  1.0000
  Ti  Ti64      1.0  0.34253  0.40919  0.07704  1.0000
  Ti  Ti65      1.0  0.34888  0.41274  0.41066  1.0000
  Ti  Ti66      1.0  0.34809  0.41208  0.73394  1.0000
  Ti  Ti67      1.0  0.34923  0.63643  0.09174  1.0000
  Ti  Ti68      1.0  0.33568  0.65785  0.41502  1.0000
  Ti  Ti69      1.0  0.34563  0.64807  0.75708  1.0000
  Ti  Ti70      1.0  0.32587  0.93091  0.08159  1.0000
  Ti  Ti71      1.0  0.32529  0.92629  0.41639  1.0000
  Ti  Ti72      1.0  0.33126  0.92174  0.75336  1.0000
  Ti  Ti73      1.0  0.58311  0.15699  0.07887  1.0000
  Ti  Ti74      1.0  0.59227  0.15573  0.41662  1.0000
  Ti  Ti75      1.0  0.58734  0.15623  0.75213  1.0000
  Ti  Ti76      1.0  0.58640  0.41491  0.08367  1.0000
  Ti  Ti77      1.0  0.59560  0.41064  0.41433  1.0000
  Ti  Ti78      1.0  0.59681  0.40615  0.75207  1.0000
  Ti  Ti79      1.0  0.58644  0.67100  0.08360  1.0000
  Ti  Ti80      1.0  0.57264  0.67881  0.42155  1.0000
  Ti  Ti81      1.0  0.57202  0.67119  0.76099  1.0000
  Ti  Ti82      1.0  0.59415  0.89850  0.07755  1.0000
  Ti  Ti83      1.0  0.60014  0.89375  0.41897  1.0000
  Ti  Ti84      1.0  0.60040  0.89805  0.74898  1.0000
  Ti  Ti85      1.0  0.84126  0.16236  0.08801  1.0000
  Ti  Ti86      1.0  0.84163  0.17178  0.40588  1.0000
  Ti  Ti87      1.0  0.84308  0.16437  0.74648  1.0000
  Ti  Ti88      1.0  0.84087  0.40877  0.07616  1.0000
  Ti  Ti89      1.0  0.84932  0.40006  0.40557  1.0000
  Ti  Ti90      1.0  0.84654  0.40739  0.73780  1.0000
  Ti  Ti91      1.0  0.85070  0.64598  0.09441  1.0000
  Ti  Ti92      1.0  0.85008  0.64852  0.42772  1.0000
  Ti  Ti93      1.0  0.85105  0.64047  0.76148  1.0000
  Ti  Ti94      1.0  0.83557  0.91219  0.08813  1.0000
  Ti  Ti95      1.0  0.83965  0.91297  0.41562  1.0000
  Ti  Ti96      1.0  0.84455  0.90334  0.75738  1.0000
  I   I1        1.0  0.06921  0.13015  0.32313  1.0000
  I   I2        1.0  0.07110  0.12407  0.65691  1.0000
  I   I3        1.0  0.06623  0.12253  0.99240  1.0000
  I   I4        1.0  0.06560  0.38376  0.31522  1.0000
  I   I5        1.0  0.06939  0.37578  0.63930  1.0000
  I   I6        1.0  0.07352  0.36716  0.97842  1.0000
  I   I7        1.0  0.08486  0.62312  0.30177  1.0000
  I   I8        1.0  0.07659  0.62063  0.62845  1.0000
  I   I9        1.0  0.07945  0.61421  0.97665  1.0000
  I   I10       1.0  0.08513  0.85852  0.33634  1.0000
  I   I11       1.0  0.08688  0.85616  0.66453  1.0000
  I   I12       1.0  0.08825  0.85744  0.99223  1.0000
  I   I13       1.0  0.32206  0.13204  0.30901  1.0000
  I   I14       1.0  0.32980  0.12384  0.64787  1.0000
  I   I15       1.0  0.32524  0.12014  0.97034  1.0000
  I   I16       1.0  0.34270  0.37450  0.30504  1.0000
  I   I17       1.0  0.33428  0.37332  0.62703  1.0000
  I   I18       1.0  0.33110  0.36810  0.96792  1.0000
  I   I19       1.0  0.33410  0.61556  0.31229  1.0000
  I   I20       1.0  0.32766  0.62332  0.64071  1.0000
  I   I21       1.0  0.32279  0.61514  0.98302  1.0000
  I   I22       1.0  0.30472  0.89797  0.31703  1.0000
  I   I23       1.0  0.31697  0.88164  0.65886  1.0000
  I   I24       1.0  0.31459  0.88996  0.98317  1.0000
  I   I25       1.0  0.58031  0.11677  0.31801  1.0000
  I   I26       1.0  0.57441  0.12142  0.64758  1.0000
  I   I27       1.0  0.57147  0.11618  0.98276  1.0000
  I   I28       1.0  0.57274  0.38135  0.32010  1.0000
  I   I29       1.0  0.58482  0.37024  0.65496  1.0000
  I   I30       1.0  0.57258  0.37036  0.98775  1.0000
  I   I31       1.0  0.55543  0.64688  0.32215  1.0000
  I   I32       1.0  0.55663  0.63423  0.65881  1.0000
  I   I33       1.0  0.56157  0.63527  0.98285  1.0000
  I   I34       1.0  0.57416  0.87247  0.31219  1.0000
  I   I35       1.0  0.57600  0.86994  0.64197  1.0000
  I   I36       1.0  0.58087  0.86202  0.97913  1.0000
  I   I37       1.0  0.82118  0.13507  0.30948  1.0000
  I   I38       1.0  0.82237  0.13658  0.64132  1.0000
  I   I39       1.0  0.82402  0.13221  0.98638  1.0000
  I   I40       1.0  0.84115  0.36160  0.30110  1.0000
  I   I41       1.0  0.83537  0.37115  0.63195  1.0000
  I   I42       1.0  0.83809  0.36076  0.97905  1.0000
  I   I43       1.0  0.83070  0.61699  0.32358  1.0000
  I   I44       1.0  0.82705  0.60931  0.65269  1.0000
  I   I45       1.0  0.82521  0.62046  0.98780  1.0000
  I   I46       1.0  0.81981  0.87401  0.32101  1.0000
  I   I47       1.0  0.82414  0.87531  0.65237  1.0000
  I   I48       1.0  0.82241  0.87598  0.98714  1.0000
  I   I49       1.0  0.11843  0.18036  0.18137  1.0000
  I   I50       1.0  0.11524  0.18512  0.51218  1.0000
  I   I51       1.0  0.11304  0.17906  0.86899  1.0000
  I   I52       1.0  0.11753  0.42729  0.18713  1.0000
  I   I53       1.0  0.12347  0.43001  0.50880  1.0000
  I   I54       1.0  0.13582  0.41619  0.84506  1.0000
  I   I55       1.0  0.12769  0.68135  0.16769  1.0000
  I   I56       1.0  0.13531  0.67530  0.50538  1.0000
  I   I57       1.0  0.13035  0.66987  0.83046  1.0000
  I   I58       1.0  0.12762  0.92178  0.19426  1.0000
  I   I59       1.0  0.12478  0.92419  0.52499  1.0000
  I   I60       1.0  0.12932  0.91684  0.87187  1.0000
  I   I61       1.0  0.37437  0.17188  0.18103  1.0000
  I   I62       1.0  0.37986  0.17626  0.52114  1.0000
  I   I63       1.0  0.38263  0.18029  0.85607  1.0000
  I   I64       1.0  0.37086  0.43775  0.17127  1.0000
  I   I65       1.0  0.37679  0.43052  0.50830  1.0000
  I   I66       1.0  0.37201  0.43239  0.83523  1.0000
  I   I67       1.0  0.37038  0.67000  0.18870  1.0000
  I   I68       1.0  0.36336  0.68064  0.52047  1.0000
  I   I69       1.0  0.37114  0.67011  0.86011  1.0000
  I   I70       1.0  0.36394  0.93936  0.18351  1.0000
  I   I71       1.0  0.36902  0.92991  0.52602  1.0000
  I   I72       1.0  0.36407  0.94274  0.85935  1.0000
  I   I73       1.0  0.62150  0.17180  0.17695  1.0000
  I   I74       1.0  0.62546  0.17553  0.51460  1.0000
  I   I75       1.0  0.62372  0.16916  0.85218  1.0000
  I   I76       1.0  0.61320  0.43750  0.18679  1.0000
  I   I77       1.0  0.62794  0.43036  0.51932  1.0000
  I   I78       1.0  0.62196  0.42868  0.85747  1.0000
  I   I79       1.0  0.62613  0.68522  0.18723  1.0000
  I   I80       1.0  0.61936  0.68709  0.51393  1.0000
  I   I81       1.0  0.61039  0.68547  0.85324  1.0000
  I   I82       1.0  0.61502  0.92551  0.18900  1.0000
  I   I83       1.0  0.62820  0.91628  0.52026  1.0000
  I   I84       1.0  0.63448  0.91369  0.85729  1.0000
  I   I85       1.0  0.88265  0.17742  0.18985  1.0000
  I   I86       1.0  0.88493  0.17929  0.50596  1.0000
  I   I87       1.0  0.88320  0.17386  0.84592  1.0000
  I   I88       1.0  0.88185  0.42751  0.16410  1.0000
  I   I89       1.0  0.88453  0.41783  0.50046  1.0000
  I   I90       1.0  0.87985  0.41873  0.84112  1.0000
  I   I91       1.0  0.88154  0.66664  0.18526  1.0000
  I   I92       1.0  0.88135  0.66600  0.52848  1.0000
  I   I93       1.0  0.87720  0.66380  0.86058  1.0000
  I   I94       1.0  0.87134  0.92226  0.19264  1.0000
  I   I95       1.0  0.87745  0.92467  0.51727  1.0000
  I   I96       1.0  0.88146  0.92088  0.84893  1.0000
  I   I97       1.0  0.16264  0.13318  0.02767  1.0000
  I   I98       1.0  0.16090  0.14393  0.35428  1.0000
  I   I99       1.0  0.16466  0.13906  0.69121  1.0000
  I   I100      1.0  0.17304  0.37603  0.01124  1.0000
  I   I101      1.0  0.17339  0.37389  0.35313  1.0000
  I   I102      1.0  0.17322  0.37891  0.67391  1.0000
  I   I103      1.0  0.17463  0.62710  0.00027  1.0000
  I   I104      1.0  0.18416  0.62285  0.33821  1.0000
  I   I105      1.0  0.17813  0.62827  0.67439  1.0000
  I   I106      1.0  0.18356  0.86518  0.02783  1.0000
  I   I107      1.0  0.18717  0.86873  0.35598  1.0000
  I   I108      1.0  0.18276  0.87777  0.67902  1.0000
  I   I109      1.0  0.43065  0.12113  0.01507  1.0000
  I   I110      1.0  0.43106  0.12353  0.34783  1.0000
  I   I111      1.0  0.44155  0.10429  0.68607  1.0000
  I   I112      1.0  0.42033  0.38963  0.01530  1.0000
  I   I113      1.0  0.43761  0.38360  0.33683  1.0000
  I   I114      1.0  0.43522  0.38008  0.67922  1.0000
  I   I115      1.0  0.42803  0.61280  0.02937  1.0000
  I   I116      1.0  0.42178  0.62844  0.34606  1.0000
  I   I117      1.0  0.43265  0.61306  0.68221  1.0000
  I   I118      1.0  0.40974  0.89529  0.01595  1.0000
  I   I119      1.0  0.40966  0.88771  0.35618  1.0000
  I   I120      1.0  0.41004  0.89159  0.69106  1.0000
  I   I121      1.0  0.66568  0.12167  0.01806  1.0000
  I   I122      1.0  0.67616  0.12344  0.34927  1.0000
  I   I123      1.0  0.67026  0.12925  0.68090  1.0000
  I   I124      1.0  0.67161  0.37981  0.02715  1.0000
  I   I125      1.0  0.67941  0.38182  0.34918  1.0000
  I   I126      1.0  0.68094  0.37560  0.69655  1.0000
  I   I127      1.0  0.66728  0.63076  0.02586  1.0000
  I   I128      1.0  0.66130  0.64137  0.35308  1.0000
  I   I129      1.0  0.65398  0.63310  0.69602  1.0000
  I   I130      1.0  0.67865  0.86934  0.02600  1.0000
  I   I131      1.0  0.68016  0.86808  0.35861  1.0000
  I   I132      1.0  0.68791  0.86243  0.69365  1.0000
  I   I133      1.0  0.93070  0.12408  0.02431  1.0000
  I   I134      1.0  0.92504  0.13079  0.35256  1.0000
  I   I135      1.0  0.92907  0.12120  0.69209  1.0000
  I   I136      1.0  0.92684  0.37289  0.00790  1.0000
  I   I137      1.0  0.92993  0.38023  0.34010  1.0000
  I   I138      1.0  0.93066  0.36763  0.68339  1.0000
  I   I139      1.0  0.93535  0.60808  0.02669  1.0000
  I   I140      1.0  0.92637  0.61628  0.36500  1.0000
  I   I141      1.0  0.92602  0.61278  0.70651  1.0000
  I   I142      1.0  0.92321  0.87546  0.02272  1.0000
  I   I143      1.0  0.92061  0.87612  0.34686  1.0000
  I   I144      1.0  0.92200  0.87479  0.68579  1.0000
  I   I145      1.0  0.12490  0.07748  0.15436  1.0000
  I   I146      1.0  0.12404  0.07365  0.50079  1.0000
  I   I147      1.0  0.12808  0.07857  0.81760  1.0000
  I   I148      1.0  0.12365  0.32489  0.14782  1.0000
  I   I149      1.0  0.11349  0.32490  0.47985  1.0000
  I   I150      1.0  0.12686  0.32246  0.80848  1.0000
  I   I151      1.0  0.12255  0.57950  0.14198  1.0000
  I   I152      1.0  0.12586  0.57486  0.48125  1.0000
  I   I153      1.0  0.12446  0.56905  0.80997  1.0000
  I   I154      1.0  0.14116  0.80972  0.15447  1.0000
  I   I155      1.0  0.13346  0.81653  0.49109  1.0000
  I   I156      1.0  0.13914  0.81538  0.81335  1.0000
  I   I157      1.0  0.38408  0.06740  0.13858  1.0000
  I   I158      1.0  0.37703  0.07583  0.48129  1.0000
  I   I159      1.0  0.37653  0.07498  0.80392  1.0000
  I   I160      1.0  0.38913  0.32614  0.13624  1.0000
  I   I161      1.0  0.38829  0.32922  0.46619  1.0000
  I   I162      1.0  0.37235  0.32995  0.80789  1.0000
  I   I163      1.0  0.37646  0.55661  0.16176  1.0000
  I   I164      1.0  0.37324  0.57559  0.47198  1.0000
  I   I165      1.0  0.37230  0.56791  0.81978  1.0000
  I   I166      1.0  0.35002  0.84472  0.15258  1.0000
  I   I167      1.0  0.36615  0.83842  0.48086  1.0000
  I   I168      1.0  0.35559  0.84301  0.82035  1.0000
  I   I169      1.0  0.61880  0.07599  0.14170  1.0000
  I   I170      1.0  0.62413  0.07372  0.48602  1.0000
  I   I171      1.0  0.62501  0.07124  0.80930  1.0000
  I   I172      1.0  0.62892  0.32757  0.15660  1.0000
  I   I173      1.0  0.62323  0.33591  0.48988  1.0000
  I   I174      1.0  0.62789  0.32490  0.81778  1.0000
  I   I175      1.0  0.61814  0.58983  0.14853  1.0000
  I   I176      1.0  0.61534  0.58826  0.48409  1.0000
  I   I177      1.0  0.60832  0.58231  0.82994  1.0000
  I   I178      1.0  0.62777  0.81577  0.15167  1.0000
  I   I179      1.0  0.63813  0.80866  0.47500  1.0000
  I   I180      1.0  0.63736  0.81209  0.81495  1.0000
  I   I181      1.0  0.87709  0.07453  0.15042  1.0000
  I   I182      1.0  0.87279  0.08460  0.47906  1.0000
  I   I183      1.0  0.87323  0.08446  0.81508  1.0000
  I   I184      1.0  0.89052  0.32293  0.13467  1.0000
  I   I185      1.0  0.89515  0.31525  0.46278  1.0000
  I   I186      1.0  0.88419  0.32295  0.80070  1.0000
  I   I187      1.0  0.88043  0.55729  0.15617  1.0000
  I   I188      1.0  0.87507  0.56497  0.49122  1.0000
  I   I189      1.0  0.88017  0.55675  0.82973  1.0000
  I   I190      1.0  0.85954  0.83069  0.14971  1.0000
  I   I191      1.0  0.87369  0.82640  0.48094  1.0000
  I   I192      1.0  0.87121  0.82018  0.82648  1.0000
  I   I193      1.0  0.22511  0.08986  0.20621  1.0000
  I   I194      1.0  0.22658  0.09221  0.52979  1.0000
  I   I195      1.0  0.22627  0.08159  0.88118  1.0000
  I   I196      1.0  0.23214  0.31207  0.20500  1.0000
  I   I197      1.0  0.22647  0.31820  0.52865  1.0000
  I   I198      1.0  0.23472  0.31547  0.86149  1.0000
  I   I199      1.0  0.23175  0.57022  0.16905  1.0000
  I   I200      1.0  0.23438  0.56339  0.51011  1.0000
  I   I201      1.0  0.23071  0.56748  0.84479  1.0000
  I   I202      1.0  0.23969  0.81022  0.20859  1.0000
  I   I203      1.0  0.24403  0.81585  0.53930  1.0000
  I   I204      1.0  0.25208  0.80230  0.89685  1.0000
  I   I205      1.0  0.48261  0.07504  0.20229  1.0000
  I   I206      1.0  0.48405  0.05783  0.53116  1.0000
  I   I207      1.0  0.48508  0.06653  0.87241  1.0000
  I   I208      1.0  0.49200  0.33183  0.18671  1.0000
  I   I209      1.0  0.48578  0.33019  0.51670  1.0000
  I   I210      1.0  0.48432  0.33310  0.84944  1.0000
  I   I211      1.0  0.49076  0.56303  0.20830  1.0000
  I   I212      1.0  0.47908  0.56027  0.51128  1.0000
  I   I213      1.0  0.47569  0.56397  0.86134  1.0000
  I   I214      1.0  0.46948  0.82758  0.20783  1.0000
  I   I215      1.0  0.47044  0.82904  0.52056  1.0000
  I   I216      1.0  0.46927  0.83519  0.86629  1.0000
  I   I217      1.0  0.72828  0.07379  0.19113  1.0000
  I   I218      1.0  0.73146  0.07178  0.53154  1.0000
  I   I219      1.0  0.72878  0.06415  0.87879  1.0000
  I   I220      1.0  0.73377  0.32544  0.20476  1.0000
  I   I221      1.0  0.73845  0.32723  0.53731  1.0000
  I   I222      1.0  0.73098  0.32743  0.87823  1.0000
  I   I223      1.0  0.72982  0.58189  0.19780  1.0000
  I   I224      1.0  0.71786  0.57591  0.54740  1.0000
  I   I225      1.0  0.71997  0.57177  0.86483  1.0000
  I   I226      1.0  0.72998  0.83028  0.20388  1.0000
  I   I227      1.0  0.73181  0.81871  0.53815  1.0000
  I   I228      1.0  0.74399  0.80962  0.88253  1.0000
  I   I229      1.0  0.98625  0.06795  0.21658  1.0000
  I   I230      1.0  0.98672  0.06622  0.54267  1.0000
  I   I231      1.0  0.98872  0.05978  0.87510  1.0000
  I   I232      1.0  0.99429  0.32151  0.19003  1.0000
  I   I233      1.0  0.99715  0.31936  0.54116  1.0000
  I   I234      1.0  0.99342  0.31169  0.86630  1.0000
  I   I235      1.0  0.99024  0.55306  0.21950  1.0000
  I   I236      1.0  0.98676  0.56572  0.54724  1.0000
  I   I237      1.0  0.98547  0.55144  0.87075  1.0000
  I   I238      1.0  0.97367  0.80807  0.20838  1.0000
  I   I239      1.0  0.98444  0.81408  0.54457  1.0000
  I   I240      1.0  0.98251  0.81570  0.87675  1.0000
  I   I241      1.0  0.18722  0.03037  0.32092  1.0000
  I   I242      1.0  0.19258  0.03128  0.63865  1.0000
  I   I243      1.0  0.17628  0.01654  0.96792  1.0000
  I   I244      1.0  0.17354  0.27105  0.29970  1.0000
  I   I245      1.0  0.17898  0.26837  0.63150  1.0000
  I   I246      1.0  0.19078  0.26442  0.96742  1.0000
  I   I247      1.0  0.18473  0.51114  0.27689  1.0000
  I   I248      1.0  0.18936  0.51489  0.62365  1.0000
  I   I249      1.0  0.18293  0.51377  0.96053  1.0000
  I   I250      1.0  0.19270  0.75765  0.30585  1.0000
  I   I251      1.0  0.20177  0.75475  0.61858  1.0000
  I   I252      1.0  0.18888  0.75459  0.96726  1.0000
  I   I253      1.0  0.41983  0.02703  0.31647  1.0000
  I   I254      1.0  0.42529  0.01498  0.63487  1.0000
  I   I255      1.0  0.42262  0.01704  0.95881  1.0000
  I   I256      1.0  0.44544  0.27200  0.28979  1.0000
  I   I257      1.0  0.44987  0.26704  0.61820  1.0000
  I   I258      1.0  0.43589  0.26942  0.94377  1.0000
  I   I259      1.0  0.44070  0.50655  0.30418  1.0000
  I   I260      1.0  0.42845  0.51576  0.61512  1.0000
  I   I261      1.0  0.43706  0.50217  0.95831  1.0000
  I   I262      1.0  0.40669  0.77905  0.28934  1.0000
  I   I263      1.0  0.42110  0.77181  0.63090  1.0000
  I   I264      1.0  0.41230  0.77798  0.95517  1.0000
  I   I265      1.0  0.68095  0.01455  0.28961  1.0000
  I   I266      1.0  0.68658  0.01509  0.63986  1.0000
  I   I267      1.0  0.67221  0.01000  0.96085  1.0000
  I   I268      1.0  0.68257  0.27624  0.31289  1.0000
  I   I269      1.0  0.68273  0.27094  0.63172  1.0000
  I   I270      1.0  0.68068  0.27196  0.97444  1.0000
  I   I271      1.0  0.68439  0.53275  0.31007  1.0000
  I   I272      1.0  0.65692  0.53481  0.64064  1.0000
  I   I273      1.0  0.67412  0.52188  0.97879  1.0000
  I   I274      1.0  0.69441  0.75937  0.29513  1.0000
  I   I275      1.0  0.69241  0.75747  0.63175  1.0000
  I   I276      1.0  0.69426  0.75662  0.98044  1.0000
  I   I277      1.0  0.93432  0.01919  0.30269  1.0000
  I   I278      1.0  0.92225  0.02057  0.63211  1.0000
  I   I279      1.0  0.92201  0.02117  0.96368  1.0000
  I   I280      1.0  0.93490  0.27069  0.29551  1.0000
  I   I281      1.0  0.94455  0.26316  0.62432  1.0000
  I   I282      1.0  0.93491  0.26010  0.95389  1.0000
  I   I283      1.0  0.93455  0.50456  0.30610  1.0000
  I   I284      1.0  0.94188  0.50140  0.62576  1.0000
  I   I285      1.0  0.92938  0.50944  0.98254  1.0000
  I   I286      1.0  0.92028  0.76224  0.30708  1.0000
  I   I287      1.0  0.91963  0.76091  0.63282  1.0000
  I   I288      1.0  0.92527  0.76526  0.98077  1.0000
  I   I289      1.0  0.00861  0.18713  0.14163  1.0000
  I   I290      1.0  0.00915  0.17827  0.47211  1.0000
  I   I291      1.0  0.01449  0.16823  0.80564  1.0000
  I   I292      1.0  0.01841  0.42757  0.12553  1.0000
  I   I293      1.0  0.02118  0.42899  0.48286  1.0000
  I   I294      1.0  0.02793  0.42996  0.81650  1.0000
  I   I295      1.0  0.01993  0.68060  0.12739  1.0000
  I   I296      1.0  0.02713  0.67360  0.45906  1.0000
  I   I297      1.0  0.02406  0.66958  0.79651  1.0000
  I   I298      1.0  0.02854  0.90584  0.14483  1.0000
  I   I299      1.0  0.01861  0.91822  0.48062  1.0000
  I   I300      1.0  0.02224  0.91909  0.81207  1.0000
  I   I301      1.0  0.26774  0.17484  0.11165  1.0000
  I   I302      1.0  0.27086  0.19428  0.44889  1.0000
  I   I303      1.0  0.27400  0.19809  0.77517  1.0000
  I   I304      1.0  0.27530  0.41476  0.13654  1.0000
  I   I305      1.0  0.27641  0.42637  0.46067  1.0000
  I   I306      1.0  0.27447  0.43675  0.78789  1.0000
  I   I307      1.0  0.27124  0.66483  0.14019  1.0000
  I   I308      1.0  0.26113  0.67077  0.45837  1.0000
  I   I309      1.0  0.26627  0.67207  0.79104  1.0000
  I   I310      1.0  0.25104  0.95585  0.13166  1.0000
  I   I311      1.0  0.25432  0.95139  0.47528  1.0000
  I   I312      1.0  0.25345  0.95346  0.80288  1.0000
  I   I313      1.0  0.50620  0.18200  0.12193  1.0000
  I   I314      1.0  0.51575  0.18672  0.46359  1.0000
  I   I315      1.0  0.50849  0.18581  0.79490  1.0000
  I   I316      1.0  0.51215  0.43628  0.13337  1.0000
  I   I317      1.0  0.51577  0.42900  0.45358  1.0000
  I   I318      1.0  0.52133  0.43153  0.79746  1.0000
  I   I319      1.0  0.51354  0.69560  0.13951  1.0000
  I   I320      1.0  0.50245  0.69813  0.47892  1.0000
  I   I321      1.0  0.50505  0.68034  0.82018  1.0000
  I   I322      1.0  0.51845  0.92049  0.13289  1.0000
  I   I323      1.0  0.52544  0.91268  0.46515  1.0000
  I   I324      1.0  0.52335  0.92525  0.78754  1.0000
  I   I325      1.0  0.77432  0.17980  0.15417  1.0000
  I   I326      1.0  0.77034  0.19787  0.46936  1.0000
  I   I327      1.0  0.77304  0.18904  0.80669  1.0000
  I   I328      1.0  0.77552  0.41654  0.13792  1.0000
  I   I329      1.0  0.77523  0.41986  0.45248  1.0000
  I   I330      1.0  0.77445  0.42399  0.78902  1.0000
  I   I331      1.0  0.77748  0.67026  0.14277  1.0000
  I   I332      1.0  0.77145  0.67657  0.46758  1.0000
  I   I333      1.0  0.77344  0.66203  0.80765  1.0000
  I   I334      1.0  0.75552  0.94201  0.11505  1.0000
  I   I335      1.0  0.76377  0.94515  0.45964  1.0000
  I   I336      1.0  0.76715  0.93868  0.79956  1.0000
  I   I337      1.0  0.06167  0.23517  0.03707  1.0000
  I   I338      1.0  0.04538  0.24896  0.36464  1.0000
  I   I339      1.0  0.05804  0.24037  0.71214  1.0000
  I   I340      1.0  0.06935  0.48265  0.03697  1.0000
  I   I341      1.0  0.06256  0.48938  0.37551  1.0000
  I   I342      1.0  0.06436  0.48184  0.70125  1.0000
  I   I343      1.0  0.06345  0.72985  0.00931  1.0000
  I   I344      1.0  0.07988  0.72842  0.35217  1.0000
  I   I345      1.0  0.06105  0.72535  0.68091  1.0000
  I   I346      1.0  0.06030  0.97292  0.04439  1.0000
  I   I347      1.0  0.05937  0.97907  0.38131  1.0000
  I   I348      1.0  0.06369  0.97656  0.71974  1.0000
  I   I349      1.0  0.31815  0.23692  0.03149  1.0000
  I   I350      1.0  0.34048  0.23217  0.36550  1.0000
  I   I351      1.0  0.35125  0.22473  0.69563  1.0000
  I   I352      1.0  0.30918  0.48505  0.02789  1.0000
  I   I353      1.0  0.31857  0.48890  0.36028  1.0000
  I   I354      1.0  0.31378  0.48766  0.67850  1.0000
  I   I355      1.0  0.32168  0.71425  0.04222  1.0000
  I   I356      1.0  0.31673  0.73316  0.37361  1.0000
  I   I357      1.0  0.32346  0.72398  0.71099  1.0000
  I   I358      1.0  0.31486  0.00364  0.03603  1.0000
  I   I359      1.0  0.31495  0.99780  0.36274  1.0000
  I   I360      1.0  0.31735  0.99730  0.70835  1.0000
  I   I361      1.0  0.55966  0.23351  0.02752  1.0000
  I   I362      1.0  0.56998  0.23182  0.35775  1.0000
  I   I363      1.0  0.56477  0.23424  0.71132  1.0000
  I   I364      1.0  0.55184  0.49135  0.03405  1.0000
  I   I365      1.0  0.56282  0.48967  0.36784  1.0000
  I   I366      1.0  0.57831  0.47692  0.68642  1.0000
  I   I367      1.0  0.56305  0.74643  0.03284  1.0000
  I   I368      1.0  0.54178  0.76013  0.37225  1.0000
  I   I369      1.0  0.54639  0.74855  0.71657  1.0000
  I   I370      1.0  0.55554  0.97315  0.01963  1.0000
  I   I371      1.0  0.56108  0.97677  0.37631  1.0000
  I   I372      1.0  0.58619  0.97270  0.70404  1.0000
  I   I373      1.0  0.81072  0.24208  0.05924  1.0000
  I   I374      1.0  0.80941  0.25091  0.36011  1.0000
  I   I375      1.0  0.81949  0.24118  0.70192  1.0000
  I   I376      1.0  0.80462  0.48150  0.02012  1.0000
  I   I377      1.0  0.81557  0.47880  0.35769  1.0000
  I   I378      1.0  0.81034  0.48463  0.68379  1.0000
  I   I379      1.0  0.82731  0.72504  0.04423  1.0000
  I   I380      1.0  0.82963  0.72413  0.37848  1.0000
  I   I381      1.0  0.82228  0.71651  0.70778  1.0000
  I   I382      1.0  0.81921  0.98691  0.04367  1.0000
  I   I383      1.0  0.81879  0.98949  0.37118  1.0000
  I   I384      1.0  0.82762  0.97602  0.69855  1.0000
