data_image0
_chemical_formula_structural       Ti96I384
_chemical_formula_sum              "Ti96 I384"
_cell_length_a       77.5399
_cell_length_b       77.6781
_cell_length_c       37.9724
_cell_angle_alpha    88.7757
_cell_angle_beta     88.7757
_cell_angle_gamma    62.1586

_space_group_name_H-M_alt    "P 1"
_space_group_IT_number       1

loop_
  _space_group_symop_operation_xyz
  'x, y, z'

loop_
  _atom_site_type_symbol
  _atom_site_label
  _atom_site_symmetry_multiplicity
  _atom_site_fract_x
  _atom_site_fract_y
  _atom_site_fract_z
  _atom_site_occupancy
  Ti  Ti1       1.0  0.82789  0.75080  0.14064  1.0000
  Ti  Ti2       1.0  0.53505  0.82580  0.57726  1.0000
  Ti  Ti3       1.0  0.07738  0.13591  0.50230  1.0000
  Ti  Ti4       1.0  0.27487  0.10487  0.97245  1.0000
  Ti  Ti5       1.0  0.58332  0.07438  0.43610  1.0000
  Ti  Ti6       1.0  0.57299  0.69189  0.27058  1.0000
  Ti  Ti7       1.0  0.69489  0.91103  0.42425  1.0000
  Ti  Ti8       1.0  0.90741  0.22379  0.01720  1.0000
  Ti  Ti9       1.0  0.13454  0.21390  0.76205  1.0000
  Ti  Ti10      1.0  0.77867  0.57350  0.37311  1.0000
  Ti  Ti11      1.0  0.97065  0.98116  0.28934  1.0000
  Ti  Ti12      1.0  0.30757  0.00515  0.08968  1.0000
  Ti  Ti13      1.0  0.79601  0.61437  0.77558  1.0000
  Ti  Ti14      1.0  0.25053  0.08907  0.88701  1.0000
  Ti  Ti15      1.0  0.93675  0.18538  0.45313  1.0000
  Ti  Ti16      1.0  0.09880  0.09607  0.04234  1.0000
  Ti  Ti17      1.0  0.30746  0.22556  0.14633  1.0000
  Ti  Ti18      1.0  0.69775  0.32348  0.03725  1.0000
  Ti  Ti19      1.0  0.42321  0.16571  0.51758  1.0000
  Ti  Ti20      1.0  0.13381  0.52466  0.59041  1.0000
  Ti  Ti21      1.0  0.84798  0.21613  0.00544  1.0000
  Ti  Ti22      1.0  0.52982  0.52108  0.38375  1.0000
  Ti  Ti23      1.0  0.23551  0.40920  0.72375  1.0000
  Ti  Ti24      1.0  0.37285  0.33223  0.53563  1.0000
  Ti  Ti25      1.0  0.74675  0.30658  0.32958  1.0000
  Ti  Ti26      1.0  0.16321  0.74397  0.26268  1.0000
  Ti  Ti27      1.0  0.81387  0.69169  0.56601  1.0000
  Ti  Ti28      1.0  0.38636  0.91901  0.20290  1.0000
  Ti  Ti29      1.0  0.01567  0.95383  0.67863  1.0000
  Ti  Ti30      1.0  0.19666  0.56619  0.13518  1.0000
  Ti  Ti31      1.0  0.85345  0.11841  0.38811  1.0000
  Ti  Ti32      1.0  0.43721  0.77318  0.48707  1.0000
  Ti  Ti33      1.0  0.56856  0.25670  0.19009  1.0000
  Ti  Ti34      1.0  0.45810  0.39604  0.01888  1.0000
  Ti  Ti35      1.0  0.65033  0.99357  0.76378  1.0000
  Ti  Ti36      1.0  0.47909  0.18791  0.25211  1.0000
  Ti  Ti37      1.0  0.37102  0.21013  0.82386  1.0000
  Ti  Ti38      1.0  0.42420  0.44645  0.78508  1.0000
  Ti  Ti39      1.0  0.82943  0.53067  0.41317  1.0000
  Ti  Ti40      1.0  0.71036  0.53010  0.85782  1.0000
  Ti  Ti41      1.0  0.21030  0.62431  0.69973  1.0000
  Ti  Ti42      1.0  0.91491  0.63502  0.48356  1.0000
  Ti  Ti43      1.0  0.23427  0.89483  0.29860  1.0000
  Ti  Ti44      1.0  0.98945  0.30551  0.87921  1.0000
  Ti  Ti45      1.0  0.86397  0.43459  0.09512  1.0000
  Ti  Ti46      1.0  0.85588  0.36217  0.74388  1.0000
  Ti  Ti47      1.0  0.75861  0.19453  0.77153  1.0000
  Ti  Ti48      1.0  0.83983  0.84945  0.09544  1.0000
  Ti  Ti49      1.0  0.25255  0.90247  0.38792  1.0000
  Ti  Ti50      1.0  0.12574  0.51938  0.48102  1.0000
  Ti  Ti51      1.0  0.57579  0.83138  0.61329  1.0000
  Ti  Ti52      1.0  0.44953  0.62633  0.51960  1.0000
  Ti  Ti53      1.0  0.21281  0.72177  0.59487  1.0000
  Ti  Ti54      1.0  0.36386  0.76672  0.79965  1.0000
  Ti  Ti55      1.0  0.56387  0.59534  0.58104  1.0000
  Ti  Ti56      1.0  0.72079  0.04573  0.66809  1.0000
  Ti  Ti57      1.0  0.14862  0.17924  0.80704  1.0000
  Ti  Ti58      1.0  0.39584  0.21078  0.11425  1.0000
  Ti  Ti59      1.0  0.12122  0.04004  0.05618  1.0000
  Ti  Ti60      1.0  0.98869  0.22255  0.17115  1.0000
  Ti  Ti61      1.0  0.49767  0.18736  0.03102  1.0000
  Ti  Ti62      1.0  0.80886  0.65477  0.84426  1.0000
  Ti  Ti63      1.0  0.11396  0.69780  0.43209  1.0000
  Ti  Ti64      1.0  0.68278  0.36303  0.04482  1.0000
  Ti  Ti65      1.0  0.89745  0.58825  0.92173  1.0000
  Ti  Ti66      1.0  0.33527  0.95235  0.24665  1.0000
  Ti  Ti67      1.0  0.22650  0.59440  0.93904  1.0000
  Ti  Ti68      1.0  0.79898  0.41946  0.74898  1.0000
  Ti  Ti69      1.0  0.18149  0.68846  0.22372  1.0000
  Ti  Ti70      1.0  0.25569  0.98112  0.47001  1.0000
  Ti  Ti71      1.0  0.27378  0.70189  0.12873  1.0000
  Ti  Ti72      1.0  0.79780  0.15648  0.78833  1.0000
  Ti  Ti73      1.0  0.61754  0.33422  0.41980  1.0000
  Ti  Ti74      1.0  0.76043  0.25491  0.26394  1.0000
  Ti  Ti75      1.0  0.79190  0.64867  0.26388  1.0000
  Ti  Ti76      1.0  0.86059  0.04557  0.24252  1.0000
  Ti  Ti77      1.0  0.91986  0.14812  0.48909  1.0000
  Ti  Ti78      1.0  0.00431  0.01090  0.63985  1.0000
  Ti  Ti79      1.0  0.48172  0.92932  0.41294  1.0000
  Ti  Ti80      1.0  0.80066  0.59256  0.60759  1.0000
  Ti  Ti81      1.0  0.28845  0.37759  0.77679  1.0000
  Ti  Ti82      1.0  0.71797  0.45497  0.97049  1.0000
  Ti  Ti83      1.0  0.83916  0.46223  0.03315  1.0000
  Ti  Ti84      1.0  0.51461  0.12720  0.27267  1.0000
  Ti  Ti85      1.0  0.39635  0.16878  0.82494  1.0000
  Ti  Ti86      1.0  0.71354  0.92381  0.30678  1.0000
  Ti  Ti87      1.0  0.61254  0.76842  0.96583  1.0000
  Ti  Ti88      1.0  0.06070  0.02524  0.39835  1.0000
  Ti  Ti89      1.0  0.03769  0.38102  0.81999  1.0000
  Ti  Ti90      1.0  0.30716  0.19805  0.03322  1.0000
  Ti  Ti91      1.0  0.63224  0.38977  0.61929  1.0000
  Ti  Ti92      1.0  0.44665  0.59241  0.01511  1.0000
  Ti  Ti93      1.0  0.33788  0.61069  0.82180  1.0000
  Ti  Ti94      1.0  0.80233  0.87140  0.13077  1.0000
  Ti  Ti95      1.0  0.70554  0.05155  0.41798  1.0000
  Ti  Ti96      1.0  0.54367  0.38645  0.20557  1.0000
  I   I1        1.0  0.79041  0.16652  0.86211  1.0000
  I   I2        1.0  0.56370  0.86404  0.63879  1.0000
  I   I3        1.0  0.24987  0.88476  0.44496  1.0000
  I   I4        1.0  0.20704  0.69980  0.54092  1.0000
  I   I5        1.0  0.60661  0.66680  0.24713  1.0000
  I   I6        1.0  0.33056  0.76844  0.81729  1.0000
  I   I7        1.0  0.86872  0.24459  0.03365  1.0000
  I   I8        1.0  0.73344  0.04787  0.73377  1.0000
  I   I9        1.0  0.11911  0.20479  0.70646  1.0000
  I   I10       1.0  0.68884  0.51528  0.88712  1.0000
  I   I11       1.0  0.98344  0.00388  0.31589  1.0000
  I   I12       1.0  0.59262  0.08375  0.49544  1.0000
  I   I13       1.0  0.77569  0.68472  0.83261  1.0000
  I   I14       1.0  0.14536  0.67419  0.40336  1.0000
  I   I15       1.0  0.91264  0.18686  0.52047  1.0000
  I   I16       1.0  0.70182  0.52266  0.79012  1.0000
  I   I17       1.0  0.37467  0.92705  0.28371  1.0000
  I   I18       1.0  0.67827  0.31090  0.06694  1.0000
  I   I19       1.0  0.11798  0.67977  0.49664  1.0000
  I   I20       1.0  0.96810  0.98912  0.22459  1.0000
  I   I21       1.0  0.91988  0.20587  0.08355  1.0000
  I   I22       1.0  0.20615  0.40034  0.71710  1.0000
  I   I23       1.0  0.04125  0.05170  0.44835  1.0000
  I   I24       1.0  0.22349  0.01140  0.45146  1.0000
  I   I25       1.0  0.76770  0.29161  0.38541  1.0000
  I   I26       1.0  0.78324  0.62578  0.22680  1.0000
  I   I27       1.0  0.66552  0.01162  0.80439  1.0000
  I   I28       1.0  0.38169  0.90849  0.13926  1.0000
  I   I29       1.0  0.00006  0.93056  0.65130  1.0000
  I   I30       1.0  0.15837  0.58828  0.13375  1.0000
  I   I31       1.0  0.76852  0.61951  0.57666  1.0000
  I   I32       1.0  0.28286  0.37827  0.84081  1.0000
  I   I33       1.0  0.51431  0.89979  0.39199  1.0000
  I   I34       1.0  0.65813  0.95922  0.74206  1.0000
  I   I35       1.0  0.51317  0.10549  0.21566  1.0000
  I   I36       1.0  0.49011  0.37034  0.04513  1.0000
  I   I37       1.0  0.39815  0.14489  0.86738  1.0000
  I   I38       1.0  0.84666  0.50950  0.35461  1.0000
  I   I39       1.0  0.34443  0.24552  0.82559  1.0000
  I   I40       1.0  0.98817  0.33499  0.84409  1.0000
  I   I41       1.0  0.09503  0.54281  0.45337  1.0000
  I   I42       1.0  0.74705  0.50550  0.85969  1.0000
  I   I43       1.0  0.41884  0.17805  0.08084  1.0000
  I   I44       1.0  0.00441  0.28513  0.82078  1.0000
  I   I45       1.0  0.86712  0.46981  0.06535  1.0000
  I   I46       1.0  0.68811  0.02784  0.43961  1.0000
  I   I47       1.0  0.74018  0.21017  0.71899  1.0000
  I   I48       1.0  0.84180  0.86050  0.16097  1.0000
  I   I49       1.0  0.23217  0.93945  0.35495  1.0000
  I   I50       1.0  0.54095  0.79095  0.60216  1.0000
  I   I51       1.0  0.52549  0.83860  0.64085  1.0000
  I   I52       1.0  0.81795  0.56161  0.65174  1.0000
  I   I53       1.0  0.24374  0.72288  0.60778  1.0000
  I   I54       1.0  0.38748  0.72818  0.80505  1.0000
  I   I55       1.0  0.68191  0.93634  0.26628  1.0000
  I   I56       1.0  0.90387  0.23332  0.95036  1.0000
  I   I57       1.0  0.72712  0.04946  0.47792  1.0000
  I   I58       1.0  0.79435  0.56362  0.44546  1.0000
  I   I59       1.0  0.10242  0.01953  0.06965  1.0000
  I   I60       1.0  0.98624  0.20301  0.22870  1.0000
  I   I61       1.0  0.78424  0.62828  0.83954  1.0000
  I   I62       1.0  0.83120  0.67002  0.84833  1.0000
  I   I63       1.0  0.17580  0.49973  0.58795  1.0000
  I   I64       1.0  0.10732  0.05874  0.99491  1.0000
  I   I65       1.0  0.88406  0.60021  0.98889  1.0000
  I   I66       1.0  0.41489  0.92868  0.19685  1.0000
  I   I67       1.0  0.40414  0.16974  0.57650  1.0000
  I   I68       1.0  0.13003  0.50964  0.65463  1.0000
  I   I69       1.0  0.14438  0.72411  0.24277  1.0000
  I   I70       1.0  0.27144  0.99478  0.50535  1.0000
  I   I71       1.0  0.20617  0.44377  0.71753  1.0000
  I   I72       1.0  0.79247  0.19926  0.78215  1.0000
  I   I73       1.0  0.78828  0.72916  0.57037  1.0000
  I   I74       1.0  0.15968  0.75249  0.32943  1.0000
  I   I75       1.0  0.13321  0.77296  0.23569  1.0000
  I   I76       1.0  0.90858  0.16864  0.43148  1.0000
  I   I77       1.0  0.91988  0.22289  0.42292  1.0000
  I   I78       1.0  0.84526  0.13251  0.44862  1.0000
  I   I79       1.0  0.54136  0.27375  0.23653  1.0000
  I   I80       1.0  0.84006  0.76480  0.19425  1.0000
  I   I81       1.0  0.46416  0.78061  0.51223  1.0000
  I   I82       1.0  0.69008  0.44156  0.99150  1.0000
  I   I83       1.0  0.82034  0.46360  0.10138  1.0000
  I   I84       1.0  0.52429  0.15533  0.24103  1.0000
  I   I85       1.0  0.41177  0.20074  0.80708  1.0000
  I   I86       1.0  0.32327  0.98156  0.28753  1.0000
  I   I87       1.0  0.83847  0.49809  0.44689  1.0000
  I   I88       1.0  0.74244  0.59297  0.38927  1.0000
  I   I89       1.0  0.44578  0.37248  0.00901  1.0000
  I   I90       1.0  0.14722  0.53781  0.47446  1.0000
  I   I91       1.0  0.62167  0.36893  0.65976  1.0000
  I   I92       1.0  0.42827  0.58218  0.96726  1.0000
  I   I93       1.0  0.95329  0.31517  0.87085  1.0000
  I   I94       1.0  0.82190  0.82899  0.12795  1.0000
  I   I95       1.0  0.88338  0.34053  0.79036  1.0000
  I   I96       1.0  0.56788  0.50271  0.37919  1.0000
  I   I97       1.0  0.05355  0.16692  0.54939  1.0000
  I   I98       1.0  0.80583  0.73586  0.16039  1.0000
  I   I99       1.0  0.57511  0.81433  0.67111  1.0000
  I   I100      1.0  0.29207  0.10457  0.90415  1.0000
  I   I101      1.0  0.02881  0.03197  0.35869  1.0000
  I   I102      1.0  0.59781  0.08629  0.38681  1.0000
  I   I103      1.0  0.70104  0.94164  0.38141  1.0000
  I   I104      1.0  0.53911  0.61547  0.53470  1.0000
  I   I105      1.0  0.16849  0.17433  0.73898  1.0000
  I   I106      1.0  0.28875  0.03011  0.13725  1.0000
  I   I107      1.0  0.76803  0.56759  0.30742  1.0000
  I   I108      1.0  0.31069  0.97125  0.10071  1.0000
  I   I109      1.0  0.96469  0.18929  0.48206  1.0000
  I   I110      1.0  0.83008  0.58745  0.79045  1.0000
  I   I111      1.0  0.10057  0.54724  0.56113  1.0000
  I   I112      1.0  0.67527  0.39699  0.01818  1.0000
  I   I113      1.0  0.92213  0.55405  0.94156  1.0000
  I   I114      1.0  0.29055  0.20296  0.10464  1.0000
  I   I115      1.0  0.25975  0.57584  0.96831  1.0000
  I   I116      1.0  0.23165  0.62336  0.91724  1.0000
  I   I117      1.0  0.77034  0.44117  0.71135  1.0000
  I   I118      1.0  0.51374  0.41719  0.18710  1.0000
  I   I119      1.0  0.21369  0.58581  0.88220  1.0000
  I   I120      1.0  0.73761  0.21645  0.82064  1.0000
  I   I121      1.0  0.57895  0.36164  0.41083  1.0000
  I   I122      1.0  0.75729  0.33435  0.33374  1.0000
  I   I123      1.0  0.75858  0.68171  0.27821  1.0000
  I   I124      1.0  0.20254  0.55221  0.20283  1.0000
  I   I125      1.0  0.86216  0.05196  0.31237  1.0000
  I   I126      1.0  0.96723  0.03170  0.60906  1.0000
  I   I127      1.0  0.55063  0.27246  0.13444  1.0000
  I   I128      1.0  0.27121  0.07305  0.95976  1.0000
  I   I129      1.0  0.30561  0.39845  0.77092  1.0000
  I   I130      1.0  0.48706  0.17293  0.31942  1.0000
  I   I131      1.0  0.68835  0.47124  0.92274  1.0000
  I   I132      1.0  0.62342  0.99861  0.80957  1.0000
  I   I133      1.0  0.85682  0.53934  0.42029  1.0000
  I   I134      1.0  0.38888  0.45620  0.76274  1.0000
  I   I135      1.0  0.30613  0.97486  0.20124  1.0000
  I   I136      1.0  0.93395  0.59471  0.48777  1.0000
  I   I137      1.0  0.48794  0.60914  0.51890  1.0000
  I   I138      1.0  0.01480  0.40896  0.78041  1.0000
  I   I139      1.0  0.60996  0.42432  0.64459  1.0000
  I   I140      1.0  0.48091  0.58706  0.99568  1.0000
  I   I141      1.0  0.32369  0.59193  0.85681  1.0000
  I   I142      1.0  0.77199  0.86551  0.15167  1.0000
  I   I143      1.0  0.10811  0.10057  0.50864  1.0000
  I   I144      1.0  0.52225  0.50794  0.44218  1.0000
  I   I145      1.0  0.81616  0.78287  0.09433  1.0000
  I   I146      1.0  0.57101  0.81051  0.55737  1.0000
  I   I147      1.0  0.03845  0.14190  0.50054  1.0000
  I   I148      1.0  0.41937  0.65701  0.49451  1.0000
  I   I149      1.0  0.54625  0.08220  0.44393  1.0000
  I   I150      1.0  0.57795  0.67348  0.33045  1.0000
  I   I151      1.0  0.60185  0.57395  0.56245  1.0000
  I   I152      1.0  0.84583  0.18668  0.97745  1.0000
  I   I153      1.0  0.12295  0.25099  0.75589  1.0000
  I   I154      1.0  0.24170  0.90312  0.23056  1.0000
  I   I155      1.0  0.98141  0.94816  0.31943  1.0000
  I   I156      1.0  0.96983  0.25676  0.20364  1.0000
  I   I157      1.0  0.92292  0.13263  0.55435  1.0000
  I   I158      1.0  0.07705  0.73141  0.45743  1.0000
  I   I159      1.0  0.49550  0.15648  0.05588  1.0000
  I   I160      1.0  0.65723  0.37739  0.09195  1.0000
  I   I161      1.0  0.31316  0.19311  0.18130  1.0000
  I   I162      1.0  0.66378  0.34821  0.00369  1.0000
  I   I163      1.0  0.44196  0.12789  0.51019  1.0000
  I   I164      1.0  0.78328  0.42165  0.81487  1.0000
  I   I165      1.0  0.92124  0.24999  0.02059  1.0000
  I   I166      1.0  0.54870  0.36738  0.14668  1.0000
  I   I167      1.0  0.25112  0.42583  0.77370  1.0000
  I   I168      1.0  0.34895  0.35280  0.48700  1.0000
  I   I169      1.0  0.72034  0.27049  0.25857  1.0000
  I   I170      1.0  0.74540  0.27223  0.33912  1.0000
  I   I171      1.0  0.80190  0.66753  0.58867  1.0000
  I   I172      1.0  0.86772  0.00945  0.25833  1.0000
  I   I173      1.0  0.00473  0.03543  0.68407  1.0000
  I   I174      1.0  0.21876  0.53594  0.09097  1.0000
  I   I175      1.0  0.85725  0.13971  0.33764  1.0000
  I   I176      1.0  0.44703  0.76308  0.42349  1.0000
  I   I177      1.0  0.44389  0.93445  0.39371  1.0000
  I   I178      1.0  0.72762  0.46580  0.03425  1.0000
  I   I179      1.0  0.81775  0.50435  0.02366  1.0000
  I   I180      1.0  0.45320  0.22342  0.27413  1.0000
  I   I181      1.0  0.35441  0.18761  0.85036  1.0000
  I   I182      1.0  0.65924  0.93350  0.43739  1.0000
  I   I183      1.0  0.60612  0.80301  0.94448  1.0000
  I   I184      1.0  0.08188  0.04237  0.37291  1.0000
  I   I185      1.0  0.01498  0.37236  0.86246  1.0000
  I   I186      1.0  0.90862  0.66958  0.50313  1.0000
  I   I187      1.0  0.42307  0.63044  0.02794  1.0000
  I   I188      1.0  0.00291  0.31263  0.93888  1.0000
  I   I189      1.0  0.60401  0.75868  0.90975  1.0000
  I   I190      1.0  0.86554  0.39297  0.73604  1.0000
  I   I191      1.0  0.27539  0.22230  0.00831  1.0000
  I   I192      1.0  0.09325  0.16144  0.50048  1.0000
  I   I193      1.0  0.02125  0.93129  0.73720  1.0000
  I   I194      1.0  0.13578  0.49984  0.54589  1.0000
  I   I195      1.0  0.07054  0.14881  0.43605  1.0000
  I   I196      1.0  0.26707  0.13887  0.98781  1.0000
  I   I197      1.0  0.36387  0.23116  0.07740  1.0000
  I   I198      1.0  0.56982  0.72550  0.24602  1.0000
  I   I199      1.0  0.45129  0.74028  0.52984  1.0000
  I   I200      1.0  0.74768  0.02286  0.62548  1.0000
  I   I201      1.0  0.10447  0.21830  0.80458  1.0000
  I   I202      1.0  0.08371  0.12571  0.08440  1.0000
  I   I203      1.0  0.19441  0.70830  0.27390  1.0000
  I   I204      1.0  0.30070  0.01467  0.01329  1.0000
  I   I205      1.0  0.82012  0.63871  0.77208  1.0000
  I   I206      1.0  0.29984  0.09235  0.02866  1.0000
  I   I207      1.0  0.93661  0.11281  0.45992  1.0000
  I   I208      1.0  0.13505  0.09004  0.04790  1.0000
  I   I209      1.0  0.26991  0.25459  0.15641  1.0000
  I   I210      1.0  0.49546  0.93918  0.34991  1.0000
  I   I211      1.0  0.27766  0.96431  0.41223  1.0000
  I   I212      1.0  0.10730  0.71362  0.36910  1.0000
  I   I213      1.0  0.16561  0.68209  0.16877  1.0000
  I   I214      1.0  0.52256  0.52517  0.31087  1.0000
  I   I215      1.0  0.27188  0.38487  0.69268  1.0000
  I   I216      1.0  0.30831  0.64805  0.81877  1.0000
  I   I217      1.0  0.70939  0.32604  0.32359  1.0000
  I   I218      1.0  0.80499  0.67041  0.22835  1.0000
  I   I219      1.0  0.62787  0.34322  0.48002  1.0000
  I   I220      1.0  0.96431  0.16707  0.40146  1.0000
  I   I221      1.0  0.00644  0.97592  0.61147  1.0000
  I   I222      1.0  0.84011  0.04406  0.18772  1.0000
  I   I223      1.0  0.89117  0.09411  0.40430  1.0000
  I   I224      1.0  0.40909  0.80780  0.46802  1.0000
  I   I225      1.0  0.58993  0.27322  0.19985  1.0000
  I   I226      1.0  0.75636  0.45182  0.95874  1.0000
  I   I227      1.0  0.63802  0.01308  0.70779  1.0000
  I   I228      1.0  0.49692  0.19828  0.20034  1.0000
  I   I229      1.0  0.39795  0.19804  0.17628  1.0000
  I   I230      1.0  0.43181  0.41213  0.74982  1.0000
  I   I231      1.0  0.79374  0.52646  0.37996  1.0000
  I   I232      1.0  0.27742  0.06073  0.85292  1.0000
  I   I233      1.0  0.22783  0.63579  0.74314  1.0000
  I   I234      1.0  0.33563  0.19647  0.99646  1.0000
  I   I235      1.0  0.24993  0.86043  0.27787  1.0000
  I   I236      1.0  0.33223  0.60662  0.75029  1.0000
  I   I237      1.0  0.63550  0.38210  0.55467  1.0000
  I   I238      1.0  0.72347  0.07051  0.38998  1.0000
  I   I239      1.0  0.53604  0.36584  0.24510  1.0000
  I   I240      1.0  0.84423  0.88091  0.06765  1.0000
  I   I241      1.0  0.86271  0.71961  0.13834  1.0000
  I   I242      1.0  0.50687  0.83009  0.53184  1.0000
  I   I243      1.0  0.84083  0.33904  0.77055  1.0000
  I   I244      1.0  0.08891  0.99763  0.43421  1.0000
  I   I245      1.0  0.18288  0.74859  0.55949  1.0000
  I   I246      1.0  0.54048  0.69521  0.24934  1.0000
  I   I247      1.0  0.68634  0.91066  0.35063  1.0000
  I   I248      1.0  0.81299  0.22511  0.03466  1.0000
  I   I249      1.0  0.15654  0.21305  0.81841  1.0000
  I   I250      1.0  0.08589  0.07867  0.08791  1.0000
  I   I251      1.0  0.94047  0.99387  0.33198  1.0000
  I   I252      1.0  0.96803  0.22301  0.11784  1.0000
  I   I253      1.0  0.76833  0.60526  0.76846  1.0000
  I   I254      1.0  0.23625  0.11729  0.84123  1.0000
  I   I255      1.0  0.52024  0.17893  0.97701  1.0000
  I   I256      1.0  0.89175  0.62599  0.91449  1.0000
  I   I257      1.0  0.39965  0.19017  0.88290  1.0000
  I   I258      1.0  0.72673  0.28721  0.01662  1.0000
  I   I259      1.0  0.19227  0.60927  0.97096  1.0000
  I   I260      1.0  0.80555  0.44903  0.73977  1.0000
  I   I261      1.0  0.84305  0.24113  0.95062  1.0000
  I   I262      1.0  0.52209  0.55594  0.40913  1.0000
  I   I263      1.0  0.25528  0.72479  0.07628  1.0000
  I   I264      1.0  0.46994  0.15712  0.24537  1.0000
  I   I265      1.0  0.77187  0.28244  0.26590  1.0000
  I   I266      1.0  0.18593  0.74069  0.20033  1.0000
  I   I267      1.0  0.63634  0.33491  0.36289  1.0000
  I   I268      1.0  0.36019  0.95849  0.20304  1.0000
  I   I269      1.0  0.04283  0.99610  0.62673  1.0000
  I   I270      1.0  0.30897  0.94428  0.29327  1.0000
  I   I271      1.0  0.82171  0.11454  0.37556  1.0000
  I   I272      1.0  0.25090  0.38068  0.77673  1.0000
  I   I273      1.0  0.57974  0.21766  0.21289  1.0000
  I   I274      1.0  0.18867  0.64774  0.64991  1.0000
  I   I275      1.0  0.83222  0.68968  0.50337  1.0000
  I   I276      1.0  0.49359  0.11410  0.30846  1.0000
  I   I277      1.0  0.73608  0.41679  0.96798  1.0000
  I   I278      1.0  0.42900  0.43769  0.85190  1.0000
  I   I279      1.0  0.85895  0.44226  0.16105  1.0000
  I   I280      1.0  0.44055  0.59790  0.51013  1.0000
  I   I281      1.0  0.24080  0.59295  0.68377  1.0000
  I   I282      1.0  0.88208  0.64871  0.45460  1.0000
  I   I283      1.0  0.22223  0.89373  0.37415  1.0000
  I   I284      1.0  0.38625  0.36167  0.51792  1.0000
  I   I285      1.0  0.64434  0.75634  0.99872  1.0000
  I   I286      1.0  0.71798  0.01795  0.37619  1.0000
  I   I287      1.0  0.83621  0.14596  0.78764  1.0000
  I   I288      1.0  0.79713  0.87207  0.06066  1.0000
  I   I289      1.0  0.27635  0.88436  0.32163  1.0000
  I   I290      1.0  0.32396  0.21058  0.08641  1.0000
  I   I291      1.0  0.61147  0.81680  0.62485  1.0000
  I   I292      1.0  0.45075  0.62636  0.58872  1.0000
  I   I293      1.0  0.19292  0.73648  0.65593  1.0000
  I   I294      1.0  0.37404  0.78933  0.83645  1.0000
  I   I295      1.0  0.69286  0.87847  0.42856  1.0000
  I   I296      1.0  0.69422  0.03554  0.68408  1.0000
  I   I297      1.0  0.18107  0.15931  0.84803  1.0000
  I   I298      1.0  0.40684  0.23631  0.10023  1.0000
  I   I299      1.0  0.06428  0.11941  0.00548  1.0000
  I   I300      1.0  0.37377  0.60613  0.80706  1.0000
  I   I301      1.0  0.49381  0.21332  0.07621  1.0000
  I   I302      1.0  0.80006  0.61897  0.71048  1.0000
  I   I303      1.0  0.68936  0.56823  0.85859  1.0000
  I   I304      1.0  0.70951  0.33367  0.09388  1.0000
  I   I305      1.0  0.13226  0.04100  0.12160  1.0000
  I   I306      1.0  0.70147  0.92432  0.47989  1.0000
  I   I307      1.0  0.39372  0.18493  0.47728  1.0000
  I   I308      1.0  0.13033  0.54773  0.64702  1.0000
  I   I309      1.0  0.89171  0.19106  0.01397  1.0000
  I   I310      1.0  0.19653  0.92214  0.29189  1.0000
  I   I311      1.0  0.28480  0.66718  0.11672  1.0000
  I   I312      1.0  0.79470  0.16440  0.72194  1.0000
  I   I313      1.0  0.61357  0.30312  0.42969  1.0000
  I   I314      1.0  0.77475  0.24935  0.20267  1.0000
  I   I315      1.0  0.80225  0.63131  0.32470  1.0000
  I   I316      1.0  0.89248  0.04287  0.21047  1.0000
  I   I317      1.0  0.35010  0.91567  0.19586  1.0000
  I   I318      1.0  0.05132  0.94906  0.67917  1.0000
  I   I319      1.0  0.48567  0.95918  0.43560  1.0000
  I   I320      1.0  0.23928  0.11577  0.93812  1.0000
  I   I321      1.0  0.56119  0.56526  0.59239  1.0000
  I   I322      1.0  0.43794  0.41966  0.07062  1.0000
  I   I323      1.0  0.89735  0.40522  0.11193  1.0000
  I   I324      1.0  0.54573  0.11042  0.31688  1.0000
  I   I325      1.0  0.42001  0.14560  0.77465  1.0000
  I   I326      1.0  0.73079  0.89084  0.27484  1.0000
  I   I327      1.0  0.83858  0.41839  0.09627  1.0000
  I   I328      1.0  0.79232  0.59754  0.36906  1.0000
  I   I329      1.0  0.06358  0.38530  0.86035  1.0000
  I   I330      1.0  0.31488  0.16222  0.03501  1.0000
  I   I331      1.0  0.58797  0.76200  0.99887  1.0000
  I   I332      1.0  0.31663  0.24220  0.19788  1.0000
  I   I333      1.0  0.44354  0.41871  0.95297  1.0000
  I   I334      1.0  0.78305  0.90950  0.13953  1.0000
  I   I335      1.0  0.83070  0.38792  0.79293  1.0000
  I   I336      1.0  0.56317  0.40228  0.23611  1.0000
  I   I337      1.0  0.28006  0.90790  0.41643  1.0000
  I   I338      1.0  0.15171  0.49006  0.44823  1.0000
  I   I339      1.0  0.53791  0.85702  0.54235  1.0000
  I   I340      1.0  0.81215  0.57553  0.54932  1.0000
  I   I341      1.0  0.59575  0.03693  0.43893  1.0000
  I   I342      1.0  0.36026  0.77421  0.73403  1.0000
  I   I343      1.0  0.54439  0.62040  0.63378  1.0000
  I   I344      1.0  0.70010  0.07728  0.63745  1.0000
  I   I345      1.0  0.13475  0.15760  0.82782  1.0000
  I   I346      1.0  0.26495  0.94761  0.50277  1.0000
  I   I347      1.0  0.15803  0.01433  0.03845  1.0000
  I   I348      1.0  0.02599  0.21436  0.15269  1.0000
  I   I349      1.0  0.46546  0.20731  0.99758  1.0000
  I   I350      1.0  0.82983  0.62490  0.88948  1.0000
  I   I351      1.0  0.22513  0.07779  0.87776  1.0000
  I   I352      1.0  0.70852  0.34237  0.97640  1.0000
  I   I353      1.0  0.87827  0.58648  0.86669  1.0000
  I   I354      1.0  0.73212  0.93948  0.27556  1.0000
  I   I355      1.0  0.44922  0.17417  0.53891  1.0000
  I   I356      1.0  0.82492  0.38337  0.70230  1.0000
  I   I357      1.0  0.21817  0.67271  0.20026  1.0000
  I   I358      1.0  0.35180  0.34923  0.58989  1.0000
  I   I359      1.0  0.26656  0.69975  0.19716  1.0000
  I   I360      1.0  0.80224  0.12352  0.80943  1.0000
  I   I361      1.0  0.84383  0.68908  0.59545  1.0000
  I   I362      1.0  0.78825  0.22381  0.29263  1.0000
  I   I363      1.0  0.17493  0.66423  0.27207  1.0000
  I   I364      1.0  0.20891  0.58319  0.09312  1.0000
  I   I365      1.0  0.95905  0.14525  0.48100  1.0000
  I   I366      1.0  0.99166  0.98802  0.69853  1.0000
  I   I367      1.0  0.48157  0.91676  0.48580  1.0000
  I   I368      1.0  0.82928  0.60205  0.59921  1.0000
  I   I369      1.0  0.30887  0.34444  0.75002  1.0000
  I   I370      1.0  0.18532  0.61353  0.73191  1.0000
  I   I371      1.0  0.86526  0.43000  0.00764  1.0000
  I   I372      1.0  0.40344  0.30388  0.56835  1.0000
  I   I373      1.0  0.37016  0.18996  0.76984  1.0000
  I   I374      1.0  0.45685  0.44256  0.76024  1.0000
  I   I375      1.0  0.81398  0.45474  0.00030  1.0000
  I   I376      1.0  0.30465  0.70993  0.13065  1.0000
  I   I377      1.0  0.06459  0.34944  0.78720  1.0000
  I   I378      1.0  0.93713  0.64151  0.43155  1.0000
  I   I379      1.0  0.66301  0.39850  0.62432  1.0000
  I   I380      1.0  0.45214  0.57298  0.07253  1.0000
  I   I381      1.0  0.34350  0.99496  0.07496  1.0000
  I   I382      1.0  0.87327  0.82031  0.08425  1.0000
  I   I383      1.0  0.66923  0.08138  0.42581  1.0000
  I   I384      1.0  0.74221  0.17270  0.79339  1.0000
