data_image0
_chemical_formula_structural       Ti96I384
_chemical_formula_sum              "Ti96 I384"
_cell_length_a       48.6759
_cell_length_b       48.13
_cell_length_c       23.5078
_cell_angle_alpha    88.7757
_cell_angle_beta     88.7757
_cell_angle_gamma    62.1586

_space_group_name_H-M_alt    "P 1"
_space_group_IT_number       1

loop_
  _space_group_symop_operation_xyz
  'x, y, z'

loop_
  _atom_site_type_symbol
  _atom_site_label
  _atom_site_symmetry_multiplicity
  _atom_site_fract_x
  _atom_site_fract_y
  _atom_site_fract_z
  _atom_site_occupancy
  Ti  Ti1       1.0  0.44983  0.97499  0.35836  1.0000
  Ti  Ti2       1.0  0.15522  0.00900  0.01936  1.0000
  Ti  Ti3       1.0  0.33274  0.97891  0.08906  1.0000
  Ti  Ti4       1.0  0.17711  0.21726  0.38144  1.0000
  Ti  Ti5       1.0  0.11648  0.29637  0.87938  1.0000
  Ti  Ti6       1.0  0.20606  0.17141  0.01761  1.0000
  Ti  Ti7       1.0  0.94132  0.70800  0.42771  1.0000
  Ti  Ti8       1.0  0.88035  0.85606  0.58555  1.0000
  Ti  Ti9       1.0  0.87781  0.79525  0.13095  1.0000
  Ti  Ti10      1.0  0.02383  0.84989  0.13407  1.0000
  Ti  Ti11      1.0  0.09063  0.87455  0.74811  1.0000
  Ti  Ti12      1.0  0.08964  0.72116  0.70331  1.0000
  Ti  Ti13      1.0  0.37580  0.22560  0.33792  1.0000
  Ti  Ti14      1.0  0.37311  0.09111  0.66430  1.0000
  Ti  Ti15      1.0  0.41187  0.12648  0.05566  1.0000
  Ti  Ti16      1.0  0.28770  0.63929  0.92057  1.0000
  Ti  Ti17      1.0  0.24190  0.55661  0.15565  1.0000
  Ti  Ti18      1.0  0.31666  0.41485  0.69807  1.0000
  Ti  Ti19      1.0  0.30995  0.80523  0.14557  1.0000
  Ti  Ti20      1.0  0.51738  0.61840  0.77839  1.0000
  Ti  Ti21      1.0  0.29688  0.70348  0.38104  1.0000
  Ti  Ti22      1.0  0.32365  0.86010  0.72864  1.0000
  Ti  Ti23      1.0  0.51933  0.86797  0.90480  1.0000
  Ti  Ti24      1.0  0.43546  0.78591  0.49143  1.0000
  Ti  Ti25      1.0  0.57059  0.21692  0.62909  1.0000
  Ti  Ti26      1.0  0.51294  0.25118  0.90553  1.0000
  Ti  Ti27      1.0  0.60589  0.20347  0.30460  1.0000
  Ti  Ti28      1.0  0.66502  0.37367  0.34632  1.0000
  Ti  Ti29      1.0  0.71010  0.40903  0.72886  1.0000
  Ti  Ti30      1.0  0.59578  0.41198  0.98669  1.0000
  Ti  Ti31      1.0  0.70813  0.54318  0.31874  1.0000
  Ti  Ti32      1.0  0.81539  0.51720  0.70186  1.0000
  Ti  Ti33      1.0  0.71030  0.51221  0.01698  1.0000
  Ti  Ti34      1.0  0.78805  0.72287  0.99466  1.0000
  Ti  Ti35      1.0  0.63549  0.86203  0.31898  1.0000
  Ti  Ti36      1.0  0.77596  0.69799  0.65975  1.0000
  Ti  Ti37      1.0  0.86411  0.11883  0.89286  1.0000
  Ti  Ti38      1.0  0.90242  0.13244  0.21085  1.0000
  Ti  Ti39      1.0  0.77460  0.15681  0.63174  1.0000
  Ti  Ti40      1.0  0.95305  0.35949  0.05109  1.0000
  Ti  Ti41      1.0  0.96137  0.31831  0.60717  1.0000
  Ti  Ti42      1.0  0.06974  0.07267  0.60625  1.0000
  Ti  Ti43      1.0  0.94967  0.50517  0.28596  1.0000
  Ti  Ti44      1.0  0.02295  0.52271  0.57896  1.0000
  Ti  Ti45      1.0  0.09281  0.50617  0.83523  1.0000
  Ti  Ti46      1.0  0.76250  0.01063  0.44300  1.0000
  Ti  Ti47      1.0  0.70557  0.03450  0.78095  1.0000
  Ti  Ti48      1.0  0.63276  0.02038  0.03547  1.0000
  Ti  Ti49      1.0  0.35707  0.01034  0.32389  1.0000
  Ti  Ti50      1.0  0.08202  0.02691  0.91455  1.0000
  Ti  Ti51      1.0  0.22601  0.98210  0.10132  1.0000
  Ti  Ti52      1.0  0.11712  0.24511  0.28422  1.0000
  Ti  Ti53      1.0  0.11945  0.28449  0.71675  1.0000
  Ti  Ti54      1.0  0.17671  0.19351  0.86064  1.0000
  Ti  Ti55      1.0  0.93161  0.73657  0.27357  1.0000
  Ti  Ti56      1.0  0.90974  0.89987  0.66333  1.0000
  Ti  Ti57      1.0  0.90852  0.81574  0.96742  1.0000
  Ti  Ti58      1.0  0.98565  0.94202  0.11907  1.0000
  Ti  Ti59      1.0  0.07856  0.84801  0.28325  1.0000
  Ti  Ti60      1.0  0.10367  0.78661  0.72131  1.0000
  Ti  Ti61      1.0  0.36834  0.18472  0.19346  1.0000
  Ti  Ti62      1.0  0.35016  0.28699  0.46312  1.0000
  Ti  Ti63      1.0  0.30949  0.16172  0.65404  1.0000
  Ti  Ti64      1.0  0.34783  0.47301  0.59885  1.0000
  Ti  Ti65      1.0  0.27327  0.57448  0.99012  1.0000
  Ti  Ti66      1.0  0.21118  0.53531  0.29106  1.0000
  Ti  Ti67      1.0  0.27464  0.77635  0.24615  1.0000
  Ti  Ti68      1.0  0.51665  0.67343  0.89651  1.0000
  Ti  Ti69      1.0  0.24422  0.66678  0.43998  1.0000
  Ti  Ti70      1.0  0.38380  0.82929  0.59994  1.0000
  Ti  Ti71      1.0  0.55551  0.91846  0.86385  1.0000
  Ti  Ti72      1.0  0.47332  0.83544  0.99814  1.0000
  Ti  Ti73      1.0  0.59403  0.17201  0.47805  1.0000
  Ti  Ti74      1.0  0.48951  0.23070  0.74708  1.0000
  Ti  Ti75      1.0  0.48475  0.26294  0.06763  1.0000
  Ti  Ti76      1.0  0.51007  0.40943  0.99706  1.0000
  Ti  Ti77      1.0  0.61085  0.44979  0.44665  1.0000
  Ti  Ti78      1.0  0.64466  0.39093  0.82039  1.0000
  Ti  Ti79      1.0  0.73453  0.55341  0.14460  1.0000
  Ti  Ti80      1.0  0.79355  0.51778  0.35919  1.0000
  Ti  Ti81      1.0  0.75331  0.53395  0.84287  1.0000
  Ti  Ti82      1.0  0.76096  0.73805  0.84211  1.0000
  Ti  Ti83      1.0  0.62510  0.84743  0.15963  1.0000
  Ti  Ti84      1.0  0.70063  0.77500  0.55961  1.0000
  Ti  Ti85      1.0  0.77205  0.18441  0.80513  1.0000
  Ti  Ti86      1.0  0.83682  0.17169  0.06028  1.0000
  Ti  Ti87      1.0  0.76348  0.19343  0.45824  1.0000
  Ti  Ti88      1.0  0.90743  0.30191  0.11218  1.0000
  Ti  Ti89      1.0  0.90498  0.29424  0.62307  1.0000
  Ti  Ti90      1.0  0.14000  0.99402  0.49593  1.0000
  Ti  Ti91      1.0  0.11980  0.53999  0.98491  1.0000
  Ti  Ti92      1.0  0.94820  0.54129  0.45179  1.0000
  Ti  Ti93      1.0  0.00437  0.57815  0.74652  1.0000
  Ti  Ti94      1.0  0.60997  0.01962  0.18797  1.0000
  Ti  Ti95      1.0  0.73240  0.99087  0.58701  1.0000
  Ti  Ti96      1.0  0.65537  0.97645  0.85424  1.0000
  I   I1        1.0  0.09075  0.00286  0.81687  1.0000
  I   I2        1.0  0.18238  0.95895  0.10126  1.0000
  I   I3        1.0  0.31846  0.00009  0.39264  1.0000
  I   I4        1.0  0.11248  0.23590  0.69712  1.0000
  I   I5        1.0  0.16837  0.25791  0.81418  1.0000
  I   I6        1.0  0.16975  0.15168  0.06979  1.0000
  I   I7        1.0  0.91073  0.88623  0.77246  1.0000
  I   I8        1.0  0.84867  0.87275  0.67778  1.0000
  I   I9        1.0  0.92081  0.79163  0.20785  1.0000
  I   I10       1.0  0.08335  0.82306  0.16545  1.0000
  I   I11       1.0  0.16527  0.75773  0.74899  1.0000
  I   I12       1.0  0.94836  0.97020  0.20762  1.0000
  I   I13       1.0  0.31813  0.28500  0.36174  1.0000
  I   I14       1.0  0.42683  0.06212  0.61780  1.0000
  I   I15       1.0  0.36587  0.13730  0.14514  1.0000
  I   I16       1.0  0.32640  0.56721  0.95265  1.0000
  I   I17       1.0  0.25529  0.49840  0.20670  1.0000
  I   I18       1.0  0.35341  0.50387  0.68128  1.0000
  I   I19       1.0  0.50231  0.62300  0.89483  1.0000
  I   I20       1.0  0.18829  0.70401  0.47279  1.0000
  I   I21       1.0  0.29735  0.76348  0.37505  1.0000
  I   I22       1.0  0.53340  0.98118  0.87390  1.0000
  I   I23       1.0  0.53406  0.90734  0.96942  1.0000
  I   I24       1.0  0.38703  0.85042  0.49599  1.0000
  I   I25       1.0  0.53205  0.18577  0.66289  1.0000
  I   I26       1.0  0.47831  0.22760  0.97320  1.0000
  I   I27       1.0  0.65004  0.13639  0.44392  1.0000
  I   I28       1.0  0.66388  0.39099  0.46569  1.0000
  I   I29       1.0  0.70087  0.35172  0.77935  1.0000
  I   I30       1.0  0.57002  0.37346  0.94394  1.0000
  I   I31       1.0  0.73255  0.57643  0.37359  1.0000
  I   I32       1.0  0.74772  0.56145  0.74680  1.0000
  I   I33       1.0  0.69957  0.57667  0.04635  1.0000
  I   I34       1.0  0.62954  0.87715  0.07144  1.0000
  I   I35       1.0  0.70124  0.82625  0.57919  1.0000
  I   I36       1.0  0.74767  0.69580  0.78076  1.0000
  I   I37       1.0  0.81306  0.13899  0.99996  1.0000
  I   I38       1.0  0.79065  0.14172  0.40270  1.0000
  I   I39       1.0  0.73147  0.17810  0.72604  1.0000
  I   I40       1.0  0.86256  0.28678  0.56486  1.0000
  I   I41       1.0  0.14330  0.93841  0.47161  1.0000
  I   I42       1.0  0.89421  0.35992  0.05215  1.0000
  I   I43       1.0  0.92964  0.49904  0.38440  1.0000
  I   I44       1.0  0.97609  0.55887  0.66821  1.0000
  I   I45       1.0  0.06459  0.53378  0.94502  1.0000
  I   I46       1.0  0.78700  0.97657  0.53999  1.0000
  I   I47       1.0  0.70537  0.96943  0.79481  1.0000
  I   I48       1.0  0.62831  0.97173  0.10207  1.0000
  I   I49       1.0  0.40077  0.02485  0.26096  1.0000
  I   I50       1.0  0.10364  0.03115  0.08026  1.0000
  I   I51       1.0  0.26589  0.01013  0.07720  1.0000
  I   I52       1.0  0.11066  0.24690  0.40238  1.0000
  I   I53       1.0  0.07427  0.28868  0.81225  1.0000
  I   I54       1.0  0.20737  0.13387  0.91251  1.0000
  I   I55       1.0  0.92402  0.68694  0.32880  1.0000
  I   I56       1.0  0.88285  0.91321  0.54972  1.0000
  I   I57       1.0  0.93165  0.76480  0.05504  1.0000
  I   I58       1.0  0.03438  0.80373  0.06793  1.0000
  I   I59       1.0  0.10238  0.88746  0.27888  1.0000
  I   I60       1.0  0.05000  0.78836  0.69534  1.0000
  I   I61       1.0  0.38497  0.23392  0.22484  1.0000
  I   I62       1.0  0.39772  0.28419  0.52163  1.0000
  I   I63       1.0  0.28663  0.21700  0.68935  1.0000
  I   I64       1.0  0.23951  0.69108  0.88006  1.0000
  I   I65       1.0  0.22633  0.56826  0.04026  1.0000
  I   I66       1.0  0.17475  0.51072  0.32895  1.0000
  I   I67       1.0  0.26670  0.77797  0.13970  1.0000
  I   I68       1.0  0.45488  0.64696  0.77620  1.0000
  I   I69       1.0  0.22841  0.71796  0.36463  1.0000
  I   I70       1.0  0.38513  0.80616  0.70602  1.0000
  I   I71       1.0  0.57167  0.84786  0.84649  1.0000
  I   I72       1.0  0.42100  0.83253  0.97670  1.0000
  I   I73       1.0  0.53980  0.22993  0.52264  1.0000
  I   I74       1.0  0.46659  0.27356  0.82734  1.0000
  I   I75       1.0  0.49132  0.30564  0.11684  1.0000
  I   I76       1.0  0.64640  0.43792  0.33654  1.0000
  I   I77       1.0  0.58551  0.44664  0.54161  1.0000
  I   I78       1.0  0.59298  0.43838  0.87411  1.0000
  I   I79       1.0  0.76426  0.51411  0.24565  1.0000
  I   I80       1.0  0.83851  0.46325  0.33205  1.0000
  I   I81       1.0  0.77182  0.49937  0.95151  1.0000
  I   I82       1.0  0.80198  0.76161  0.87410  1.0000
  I   I83       1.0  0.59281  0.90581  0.25873  1.0000
  I   I84       1.0  0.70931  0.73188  0.64764  1.0000
  I   I85       1.0  0.81943  0.18210  0.88261  1.0000
  I   I86       1.0  0.88120  0.17799  0.12778  1.0000
  I   I87       1.0  0.75309  0.22000  0.57343  1.0000
  I   I88       1.0  0.85305  0.30939  0.07351  1.0000
  I   I89       1.0  0.96198  0.31457  0.72251  1.0000
  I   I90       1.0  0.13612  0.04093  0.58691  1.0000
  I   I91       1.0  0.17148  0.50875  0.03976  1.0000
  I   I92       1.0  0.99069  0.56086  0.49298  1.0000
  I   I93       1.0  0.06518  0.56632  0.78851  1.0000
  I   I94       1.0  0.56638  0.00885  0.21704  1.0000
  I   I95       1.0  0.68012  0.03623  0.66242  1.0000
  I   I96       1.0  0.60346  0.00601  0.94529  1.0000
  I   I97       1.0  0.32794  0.96937  0.20386  1.0000
  I   I98       1.0  0.47878  0.00936  0.37332  1.0000
  I   I99       1.0  0.16898  0.04073  0.10976  1.0000
  I   I100      1.0  0.16179  0.26014  0.25972  1.0000
  I   I101      1.0  0.17388  0.18569  0.46788  1.0000
  I   I102      1.0  0.13798  0.24256  0.94211  1.0000
  I   I103      1.0  0.87042  0.75266  0.20241  1.0000
  I   I104      1.0  0.98849  0.65090  0.42585  1.0000
  I   I105      1.0  0.92570  0.78353  0.88077  1.0000
  I   I106      1.0  0.05563  0.70541  0.77167  1.0000
  I   I107      1.0  0.02087  0.81307  0.22290  1.0000
  I   I108      1.0  0.09231  0.83062  0.81635  1.0000
  I   I109      1.0  0.43453  0.13951  0.16139  1.0000
  I   I110      1.0  0.38937  0.27611  0.37354  1.0000
  I   I111      1.0  0.34325  0.07049  0.60038  1.0000
  I   I112      1.0  0.37123  0.41311  0.65699  1.0000
  I   I113      1.0  0.26579  0.63411  0.03256  1.0000
  I   I114      1.0  0.18235  0.55149  0.18272  1.0000
  I   I115      1.0  0.28928  0.71579  0.26237  1.0000
  I   I116      1.0  0.27739  0.83540  0.05654  1.0000
  I   I117      1.0  0.54497  0.55810  0.77141  1.0000
  I   I118      1.0  0.37907  0.78035  0.55286  1.0000
  I   I119      1.0  0.35608  0.85531  0.82009  1.0000
  I   I120      1.0  0.54131  0.82112  0.98066  1.0000
  I   I121      1.0  0.61813  0.22111  0.41308  1.0000
  I   I122      1.0  0.52057  0.26327  0.69323  1.0000
  I   I123      1.0  0.46334  0.30361  0.96436  1.0000
  I   I124      1.0  0.53113  0.45641  0.97914  1.0000
  I   I125      1.0  0.72331  0.33286  0.33467  1.0000
  I   I126      1.0  0.68519  0.41065  0.86746  1.0000
  I   I127      1.0  0.73919  0.49523  0.11840  1.0000
  I   I128      1.0  0.74978  0.49760  0.39565  1.0000
  I   I129      1.0  0.77893  0.47154  0.79525  1.0000
  I   I130      1.0  0.78257  0.73891  0.73693  1.0000
  I   I131      1.0  0.76286  0.77593  0.04642  1.0000
  I   I132      1.0  0.62395  0.81238  0.28132  1.0000
  I   I133      1.0  0.80482  0.17470  0.70462  1.0000
  I   I134      1.0  0.89032  0.13053  0.98499  1.0000
  I   I135      1.0  0.93980  0.14524  0.27059  1.0000
  I   I136      1.0  0.08385  0.10285  0.68673  1.0000
  I   I137      1.0  0.96575  0.37256  0.15620  1.0000
  I   I138      1.0  0.01712  0.30293  0.56543  1.0000
  I   I139      1.0  0.15092  0.49774  0.88698  1.0000
  I   I140      1.0  0.98988  0.51907  0.36323  1.0000
  I   I141      1.0  0.04582  0.55840  0.64107  1.0000
  I   I142      1.0  0.57556  0.06374  0.07752  1.0000
  I   I143      1.0  0.72770  0.05379  0.54404  1.0000
  I   I144      1.0  0.65516  0.04073  0.83607  1.0000
  I   I145      1.0  0.40137  0.94933  0.31680  1.0000
  I   I146      1.0  0.13210  0.97470  0.96040  1.0000
  I   I147      1.0  0.32281  0.97524  0.97326  1.0000
  I   I148      1.0  0.17070  0.18449  0.28581  1.0000
  I   I149      1.0  0.09862  0.34628  0.76660  1.0000
  I   I150      1.0  0.22778  0.19624  0.92381  1.0000
  I   I151      1.0  0.89191  0.77770  0.36299  1.0000
  I   I152      1.0  0.82953  0.88363  0.51264  1.0000
  I   I153      1.0  0.88197  0.84969  0.07075  1.0000
  I   I154      1.0  0.03121  0.88720  0.05094  1.0000
  I   I155      1.0  0.08168  0.91235  0.82985  1.0000
  I   I156      1.0  0.10299  0.74492  0.81308  1.0000
  I   I157      1.0  0.38385  0.16718  0.31583  1.0000
  I   I158      1.0  0.37203  0.14456  0.71287  1.0000
  I   I159      1.0  0.37107  0.12646  0.98649  1.0000
  I   I160      1.0  0.39443  0.43985  0.53562  1.0000
  I   I161      1.0  0.29926  0.53824  0.10962  1.0000
  I   I162      1.0  0.26008  0.44229  0.73722  1.0000
  I   I163      1.0  0.34130  0.74898  0.22901  1.0000
  I   I164      1.0  0.51647  0.66401  0.01110  1.0000
  I   I165      1.0  0.27153  0.71701  0.48831  1.0000
  I   I166      1.0  0.31737  0.86269  0.60433  1.0000
  I   I167      1.0  0.48766  0.92438  0.83542  1.0000
  I   I168      1.0  0.47555  0.73742  0.54325  1.0000
  I   I169      1.0  0.61186  0.16130  0.58492  1.0000
  I   I170      1.0  0.54134  0.20106  0.84320  1.0000
  I   I171      1.0  0.58403  0.18018  0.22125  1.0000
  I   I172      1.0  0.49460  0.36575  0.00097  1.0000
  I   I173      1.0  0.76137  0.39656  0.77167  1.0000
  I   I174      1.0  0.65673  0.36139  0.93926  1.0000
  I   I175      1.0  0.67227  0.57341  0.21666  1.0000
  I   I176      1.0  0.82286  0.56393  0.67558  1.0000
  I   I177      1.0  0.70021  0.52992  0.89810  1.0000
  I   I178      1.0  0.80237  0.67973  0.89559  1.0000
  I   I179      1.0  0.67863  0.83936  0.22244  1.0000
  I   I180      1.0  0.77610  0.65547  0.58325  1.0000
  I   I181      1.0  0.81395  0.12462  0.83127  1.0000
  I   I182      1.0  0.86309  0.11569  0.13911  1.0000
  I   I183      1.0  0.74749  0.14884  0.54108  1.0000
  I   I184      1.0  0.95070  0.41136  0.01011  1.0000
  I   I185      1.0  0.93305  0.30628  0.52346  1.0000
  I   I186      1.0  0.07926  0.01664  0.53793  1.0000
  I   I187      1.0  0.90397  0.52084  0.21593  1.0000
  I   I188      1.0  0.99700  0.48321  0.51319  1.0000
  I   I189      1.0  0.03971  0.51200  0.79755  1.0000
  I   I190      1.0  0.77358  0.96876  0.36416  1.0000
  I   I191      1.0  0.76082  0.99466  0.70270  1.0000
  I   I192      1.0  0.68130  0.97704  0.95772  1.0000
  I   I193      1.0  0.48419  0.94710  0.27185  1.0000
  I   I194      1.0  0.12764  0.05110  0.93017  1.0000
  I   I195      1.0  0.34345  0.02787  0.08496  1.0000
  I   I196      1.0  0.17970  0.25852  0.44356  1.0000
  I   I197      1.0  0.07134  0.34164  0.94490  1.0000
  I   I198      1.0  0.19985  0.21881  0.08435  1.0000
  I   I199      1.0  0.90753  0.68775  0.48314  1.0000
  I   I200      1.0  0.93902  0.83890  0.60064  1.0000
  I   I201      1.0  0.83810  0.80115  0.05095  1.0000
  I   I202      1.0  0.96143  0.88450  0.12820  1.0000
  I   I203      1.0  0.15004  0.85794  0.73050  1.0000
  I   I204      1.0  0.14298  0.67053  0.71258  1.0000
  I   I205      1.0  0.44248  0.19513  0.33717  1.0000
  I   I206      1.0  0.31088  0.12145  0.73791  1.0000
  I   I207      1.0  0.45263  0.13217  0.99489  1.0000
  I   I208      1.0  0.30764  0.67468  0.96817  1.0000
  I   I209      1.0  0.20578  0.61706  0.16013  1.0000
  I   I210      1.0  0.32515  0.36325  0.65671  1.0000
  I   I211      1.0  0.35822  0.76071  0.07897  1.0000
  I   I212      1.0  0.55374  0.69908  0.90042  1.0000
  I   I213      1.0  0.30146  0.64409  0.37938  1.0000
  I   I214      1.0  0.28954  0.83456  0.75530  1.0000
  I   I215      1.0  0.49738  0.83300  0.85001  1.0000
  I   I216      1.0  0.41890  0.76616  0.39616  1.0000
  I   I217      1.0  0.60376  0.24200  0.59130  1.0000
  I   I218      1.0  0.54617  0.27976  0.88224  1.0000
  I   I219      1.0  0.57678  0.26215  0.27363  1.0000
  I   I220      1.0  0.64668  0.37655  0.24319  1.0000
  I   I221      1.0  0.72533  0.38362  0.62610  1.0000
  I   I222      1.0  0.62245  0.44395  0.02037  1.0000
  I   I223      1.0  0.70098  0.49597  0.28866  1.0000
  I   I224      1.0  0.87280  0.47414  0.71339  1.0000
  I   I225      1.0  0.72323  0.45549  0.99376  1.0000
  I   I226      1.0  0.84604  0.70764  0.97751  1.0000
  I   I227      1.0  0.60561  0.85910  0.41364  1.0000
  I   I228      1.0  0.77080  0.73941  0.56466  1.0000
  I   I229      1.0  0.90518  0.10499  0.81241  1.0000
  I   I230      1.0  0.94419  0.08243  0.14909  1.0000
  I   I231      1.0  0.82469  0.13669  0.56595  1.0000
  I   I232      1.0  0.99674  0.32472  0.97862  1.0000
  I   I233      1.0  0.87025  0.34959  0.67093  1.0000
  I   I234      1.0  0.00980  0.09269  0.63714  1.0000
  I   I235      1.0  0.97452  0.53698  0.22957  1.0000
  I   I236      1.0  0.07682  0.49046  0.52235  1.0000
  I   I237      1.0  0.11966  0.49006  0.73254  1.0000
  I   I238      1.0  0.73046  0.06356  0.38841  1.0000
  I   I239      1.0  0.69310  0.09153  0.77012  1.0000
  I   I240      1.0  0.64151  0.06843  0.99513  1.0000
  I   I241      1.0  0.47478  0.92994  0.43147  1.0000
  I   I242      1.0  0.20999  0.99995  0.97906  1.0000
  I   I243      1.0  0.39066  0.93468  0.08515  1.0000
  I   I244      1.0  0.23768  0.18483  0.35467  1.0000
  I   I245      1.0  0.15141  0.32346  0.90844  1.0000
  I   I246      1.0  0.25953  0.13050  0.04983  1.0000
  I   I247      1.0  0.96127  0.72977  0.50425  1.0000
  I   I248      1.0  0.88645  0.79780  0.58647  1.0000
  I   I249      1.0  0.83767  0.83727  0.20165  1.0000
  I   I250      1.0  0.02055  0.90088  0.21931  1.0000
  I   I251      1.0  0.06889  0.92813  0.67605  1.0000
  I   I252      1.0  0.06535  0.70783  0.61070  1.0000
  I   I253      1.0  0.37631  0.21520  0.45227  1.0000
  I   I254      1.0  0.39911  0.05268  0.76249  1.0000
  I   I255      1.0  0.43592  0.06740  0.07217  1.0000
  I   I256      1.0  0.33352  0.62744  0.84337  1.0000
  I   I257      1.0  0.26420  0.56194  0.26042  1.0000
  I   I258      1.0  0.34989  0.39634  0.79815  1.0000
  I   I259      1.0  0.33658  0.83872  0.14215  1.0000
  I   I260      1.0  0.52730  0.63690  0.68294  1.0000
  I   I261      1.0  0.35254  0.68463  0.42293  1.0000
  I   I262      1.0  0.27462  0.91781  0.71712  1.0000
  I   I263      1.0  0.45424  0.89285  0.96409  1.0000
  I   I264      1.0  0.46633  0.81151  0.44315  1.0000
  I   I265      1.0  0.60050  0.20169  0.73124  1.0000
  I   I266      1.0  0.54566  0.23880  0.02143  1.0000
  I   I267      1.0  0.66221  0.18090  0.26044  1.0000
  I   I268      1.0  0.64884  0.33382  0.39251  1.0000
  I   I269      1.0  0.69774  0.46771  0.70219  1.0000
  I   I270      1.0  0.58789  0.39529  0.09130  1.0000
  I   I271      1.0  0.65555  0.56413  0.37844  1.0000
  I   I272      1.0  0.79761  0.49915  0.61561  1.0000
  I   I273      1.0  0.65620  0.52809  0.06585  1.0000
  I   I274      1.0  0.79636  0.68329  0.08428  1.0000
  I   I275      1.0  0.66777  0.88045  0.38927  1.0000
  I   I276      1.0  0.83219  0.65925  0.69346  1.0000
  I   I277      1.0  0.87572  0.06246  0.94132  1.0000
  I   I278      1.0  0.86680  0.13042  0.28829  1.0000
  I   I279      1.0  0.79342  0.09550  0.64332  1.0000
  I   I280      1.0  0.96338  0.30014  0.10255  1.0000
  I   I281      1.0  0.93994  0.37756  0.60407  1.0000
  I   I282      1.0  0.05685  0.11391  0.52484  1.0000
  I   I283      1.0  0.98038  0.44527  0.26793  1.0000
  I   I284      1.0  0.03864  0.46667  0.62981  1.0000
  I   I285      1.0  0.10387  0.45511  0.89714  1.0000
  I   I286      1.0  0.81669  0.00774  0.41187  1.0000
  I   I287      1.0  0.74392  0.01482  0.86669  1.0000
  I   I288      1.0  0.66894  0.02281  0.11215  1.0000
  I   I289      1.0  0.39634  0.01524  0.41434  1.0000
  I   I290      1.0  0.03615  0.02052  0.95470  1.0000
  I   I291      1.0  0.27545  0.93256  0.06332  1.0000
  I   I292      1.0  0.10185  0.22042  0.20065  1.0000
  I   I293      1.0  0.09636  0.32839  0.62687  1.0000
  I   I294      1.0  0.20741  0.16423  0.77293  1.0000
  I   I295      1.0  0.97263  0.73668  0.34283  1.0000
  I   I296      1.0  0.96489  0.89432  0.65583  1.0000
  I   I297      1.0  0.85785  0.85455  0.91634  1.0000
  I   I298      1.0  0.01109  0.97789  0.10804  1.0000
  I   I299      1.0  0.12487  0.79767  0.32836  1.0000
  I   I300      1.0  0.12220  0.74964  0.62987  1.0000
  I   I301      1.0  0.30976  0.22074  0.20939  1.0000
  I   I302      1.0  0.31032  0.27780  0.52671  1.0000
  I   I303      1.0  0.26412  0.15933  0.59256  1.0000
  I   I304      1.0  0.31137  0.51733  0.53516  1.0000
  I   I305      1.0  0.29319  0.51908  0.92813  1.0000
  I   I306      1.0  0.17038  0.59282  0.32571  1.0000
  I   I307      1.0  0.28001  0.83626  0.25624  1.0000
  I   I308      1.0  0.56379  0.63470  0.81658  1.0000
  I   I309      1.0  0.22537  0.62783  0.39677  1.0000
  I   I310      1.0  0.36940  0.88563  0.67603  1.0000
  I   I311      1.0  0.61621  0.88367  0.88404  1.0000
  I   I312      1.0  0.47737  0.83599  0.10793  1.0000
  I   I313      1.0  0.57345  0.13166  0.48979  1.0000
  I   I314      1.0  0.46495  0.19347  0.77751  1.0000
  I   I315      1.0  0.50829  0.21406  0.13176  1.0000
  I   I316      1.0  0.49370  0.43007  0.89288  1.0000
  I   I317      1.0  0.55776  0.46481  0.40421  1.0000
  I   I318      1.0  0.61237  0.36768  0.77397  1.0000
  I   I319      1.0  0.71576  0.61052  0.18510  1.0000
  I   I320      1.0  0.81544  0.53083  0.45383  1.0000
  I   I321      1.0  0.73687  0.58662  0.90042  1.0000
  I   I322      1.0  0.73082  0.73331  0.94835  1.0000
  I   I323      1.0  0.65103  0.78773  0.12959  1.0000
  I   I324      1.0  0.70953  0.76056  0.45146  1.0000
  I   I325      1.0  0.73361  0.19042  0.89623  1.0000
  I   I326      1.0  0.78669  0.19852  0.12375  1.0000
  I   I327      1.0  0.70571  0.22142  0.43422  1.0000
  I   I328      1.0  0.89224  0.30484  0.21861  1.0000
  I   I329      1.0  0.96824  0.25446  0.62709  1.0000
  I   I330      1.0  0.12917  0.02955  0.40980  1.0000
  I   I331      1.0  0.08384  0.56430  0.07387  1.0000
  I   I332      1.0  0.91559  0.54799  0.54532  1.0000
  I   I333      1.0  0.97882  0.58843  0.84698  1.0000
  I   I334      1.0  0.59474  0.06748  0.25321  1.0000
  I   I335      1.0  0.73974  0.93667  0.61954  1.0000
  I   I336      1.0  0.67476  0.91745  0.85467  1.0000
  I   I337      1.0  0.31057  0.06172  0.28067  1.0000
  I   I338      1.0  0.04894  0.08799  0.90164  1.0000
  I   I339      1.0  0.24157  0.96953  0.20765  1.0000
  I   I340      1.0  0.06187  0.29743  0.26843  1.0000
  I   I341      1.0  0.17042  0.26738  0.65844  1.0000
  I   I342      1.0  0.12144  0.19162  0.85453  1.0000
  I   I343      1.0  0.97050  0.70760  0.19091  1.0000
  I   I344      1.0  0.88541  0.95962  0.67539  1.0000
  I   I345      1.0  0.95024  0.83537  0.97728  1.0000
  I   I346      1.0  0.93221  0.97191  0.05510  1.0000
  I   I347      1.0  0.04426  0.86854  0.37654  1.0000
  I   I348      1.0  0.09664  0.83324  0.65461  1.0000
  I   I349      1.0  0.37134  0.20633  0.08540  1.0000
  I   I350      1.0  0.32856  0.35065  0.47671  1.0000
  I   I351      1.0  0.35263  0.15919  0.57350  1.0000
  I   I352      1.0  0.29983  0.44438  0.58464  1.0000
  I   I353      1.0  0.24392  0.61351  0.90016  1.0000
  I   I354      1.0  0.25003  0.51699  0.37831  1.0000
  I   I355      1.0  0.21883  0.80307  0.28743  1.0000
  I   I356      1.0  0.46967  0.72119  0.85667  1.0000
  I   I357      1.0  0.26244  0.64523  0.53826  1.0000
  I   I358      1.0  0.44623  0.81521  0.60308  1.0000
  I   I359      1.0  0.56707  0.91890  0.75149  1.0000
  I   I360      1.0  0.50070  0.77194  0.00653  1.0000
  I   I361      1.0  0.56252  0.18994  0.37607  1.0000
  I   I362      1.0  0.44386  0.25930  0.68359  1.0000
  I   I363      1.0  0.42474  0.28727  0.09267  1.0000
  I   I364      1.0  0.46857  0.44527  0.07687  1.0000
  I   I365      1.0  0.61856  0.49807  0.47026  1.0000
  I   I366      1.0  0.64289  0.42006  0.71769  1.0000
  I   I367      1.0  0.78828  0.54416  0.09562  1.0000
  I   I368      1.0  0.81736  0.54818  0.29183  1.0000
  I   I369      1.0  0.81145  0.53061  0.81843  1.0000
  I   I370      1.0  0.71891  0.79579  0.82866  1.0000
  I   I371      1.0  0.56743  0.86086  0.14760  1.0000
  I   I372      1.0  0.63895  0.80593  0.56437  1.0000
  I   I373      1.0  0.74740  0.24734  0.80643  1.0000
  I   I374      1.0  0.83109  0.22185  0.00145  1.0000
  I   I375      1.0  0.78656  0.22387  0.40533  1.0000
  I   I376      1.0  0.92512  0.24153  0.09369  1.0000
  I   I377      1.0  0.89930  0.26835  0.71663  1.0000
  I   I378      1.0  0.19813  0.97073  0.49818  1.0000
  I   I379      1.0  0.10886  0.59202  0.92709  1.0000
  I   I380      1.0  0.91362  0.59165  0.39807  1.0000
  I   I381      1.0  0.98217  0.64013  0.71480  1.0000
  I   I382      1.0  0.65822  0.98340  0.24479  1.0000
  I   I383      1.0  0.70318  0.99786  0.49285  1.0000
  I   I384      1.0  0.61204  0.99561  0.78144  1.0000
