data_image0
_chemical_formula_structural       Ti96I384
_chemical_formula_sum              "Ti96 I384"
_cell_length_a       64.8046
_cell_length_b       64.6147
_cell_length_c       31.4956
_cell_angle_alpha    88.7757
_cell_angle_beta     88.7757
_cell_angle_gamma    62.1586

_space_group_name_H-M_alt    "P 1"
_space_group_IT_number       1

loop_
  _space_group_symop_operation_xyz
  'x, y, z'

loop_
  _atom_site_type_symbol
  _atom_site_label
  _atom_site_symmetry_multiplicity
  _atom_site_fract_x
  _atom_site_fract_y
  _atom_site_fract_z
  _atom_site_occupancy
  Ti  Ti1       1.0  0.53591  0.87700  0.74668  1.0000
  Ti  Ti2       1.0  0.34664  0.12152  0.46565  1.0000
  Ti  Ti3       1.0  0.96790  0.59480  0.12995  1.0000
  Ti  Ti4       1.0  0.92831  0.04718  0.00609  1.0000
  Ti  Ti5       1.0  0.12166  0.79549  0.64756  1.0000
  Ti  Ti6       1.0  0.36695  0.27736  0.07255  1.0000
  Ti  Ti7       1.0  0.85985  0.96784  0.03354  1.0000
  Ti  Ti8       1.0  0.50012  0.22673  0.54202  1.0000
  Ti  Ti9       1.0  0.29301  0.81047  0.19919  1.0000
  Ti  Ti10      1.0  0.80188  0.83328  0.85194  1.0000
  Ti  Ti11      1.0  0.23301  0.45852  0.64533  1.0000
  Ti  Ti12      1.0  0.05415  0.66022  0.49290  1.0000
  Ti  Ti13      1.0  0.20932  0.27144  0.57183  1.0000
  Ti  Ti14      1.0  0.07099  0.03134  0.50440  1.0000
  Ti  Ti15      1.0  0.61383  0.22131  0.85977  1.0000
  Ti  Ti16      1.0  0.58596  0.01314  0.80341  1.0000
  Ti  Ti17      1.0  0.43741  0.17112  0.71581  1.0000
  Ti  Ti18      1.0  0.10567  0.67338  0.85649  1.0000
  Ti  Ti19      1.0  0.74272  0.81143  0.35635  1.0000
  Ti  Ti20      1.0  0.48456  0.04264  0.91047  1.0000
  Ti  Ti21      1.0  0.05616  0.11845  0.80118  1.0000
  Ti  Ti22      1.0  0.67046  0.38298  0.77520  1.0000
  Ti  Ti23      1.0  0.68124  0.00503  0.20804  1.0000
  Ti  Ti24      1.0  0.95030  0.87441  0.22862  1.0000
  Ti  Ti25      1.0  0.76224  0.64568  0.25425  1.0000
  Ti  Ti26      1.0  0.35692  0.97915  0.93739  1.0000
  Ti  Ti27      1.0  0.18410  0.73558  0.19864  1.0000
  Ti  Ti28      1.0  0.65312  0.38068  0.10321  1.0000
  Ti  Ti29      1.0  0.81635  0.92827  0.36145  1.0000
  Ti  Ti30      1.0  0.78325  0.36519  0.24977  1.0000
  Ti  Ti31      1.0  0.87060  0.29408  0.58226  1.0000
  Ti  Ti32      1.0  0.60844  0.22293  0.24172  1.0000
  Ti  Ti33      1.0  0.37701  0.90496  0.50949  1.0000
  Ti  Ti34      1.0  0.54147  0.57446  0.86450  1.0000
  Ti  Ti35      1.0  0.74750  0.45327  0.65765  1.0000
  Ti  Ti36      1.0  0.96749  0.57248  0.69645  1.0000
  Ti  Ti37      1.0  0.01701  0.33935  0.24103  1.0000
  Ti  Ti38      1.0  0.40781  0.37361  0.23311  1.0000
  Ti  Ti39      1.0  0.86323  0.10685  0.53760  1.0000
  Ti  Ti40      1.0  0.38810  0.96856  0.19716  1.0000
  Ti  Ti41      1.0  0.57210  0.70054  0.32119  1.0000
  Ti  Ti42      1.0  0.84697  0.27440  0.85378  1.0000
  Ti  Ti43      1.0  0.66401  0.11185  0.64455  1.0000
  Ti  Ti44      1.0  0.82374  0.49533  0.15938  1.0000
  Ti  Ti45      1.0  0.47714  0.52594  0.39016  1.0000
  Ti  Ti46      1.0  0.29193  0.41311  0.03578  1.0000
  Ti  Ti47      1.0  0.03261  0.46447  0.12642  1.0000
  Ti  Ti48      1.0  0.48553  0.68762  0.58355  1.0000
  Ti  Ti49      1.0  0.51667  0.82475  0.73195  1.0000
  Ti  Ti50      1.0  0.17517  0.14757  0.63233  1.0000
  Ti  Ti51      1.0  0.27721  0.15749  0.40196  1.0000
  Ti  Ti52      1.0  0.94813  0.07544  0.96791  1.0000
  Ti  Ti53      1.0  0.21648  0.67201  0.59668  1.0000
  Ti  Ti54      1.0  0.39677  0.19840  0.02903  1.0000
  Ti  Ti55      1.0  0.87890  0.93842  0.96271  1.0000
  Ti  Ti56      1.0  0.43672  0.24550  0.50960  1.0000
  Ti  Ti57      1.0  0.26857  0.78961  0.28174  1.0000
  Ti  Ti58      1.0  0.64926  0.14229  0.52638  1.0000
  Ti  Ti59      1.0  0.77422  0.85012  0.93548  1.0000
  Ti  Ti60      1.0  0.09674  0.62332  0.37310  1.0000
  Ti  Ti61      1.0  0.55006  0.26975  0.93440  1.0000
  Ti  Ti62      1.0  0.24961  0.29059  0.53969  1.0000
  Ti  Ti63      1.0  0.07899  0.96295  0.55699  1.0000
  Ti  Ti64      1.0  0.09989  0.61887  0.93976  1.0000
  Ti  Ti65      1.0  0.11724  0.44213  0.77630  1.0000
  Ti  Ti66      1.0  0.47897  0.42606  0.26090  1.0000
  Ti  Ti67      1.0  0.68054  0.83781  0.43650  1.0000
  Ti  Ti68      1.0  0.98002  0.33148  0.80469  1.0000
  Ti  Ti69      1.0  0.99794  0.16638  0.76298  1.0000
  Ti  Ti70      1.0  0.64062  0.42950  0.65628  1.0000
  Ti  Ti71      1.0  0.64314  0.98608  0.23991  1.0000
  Ti  Ti72      1.0  0.09691  0.94752  0.23966  1.0000
  Ti  Ti73      1.0  0.18134  0.67581  0.18242  1.0000
  Ti  Ti74      1.0  0.81249  0.65321  0.21740  1.0000
  Ti  Ti75      1.0  0.35965  0.00861  0.02615  1.0000
  Ti  Ti76      1.0  0.80696  0.31450  0.29534  1.0000
  Ti  Ti77      1.0  0.62949  0.35339  0.20651  1.0000
  Ti  Ti78      1.0  0.85296  0.94913  0.39595  1.0000
  Ti  Ti79      1.0  0.34061  0.48589  0.91307  1.0000
  Ti  Ti80      1.0  0.79712  0.31321  0.59944  1.0000
  Ti  Ti81      1.0  0.66347  0.22706  0.27996  1.0000
  Ti  Ti82      1.0  0.48532  0.57363  0.91226  1.0000
  Ti  Ti83      1.0  0.77581  0.50236  0.65747  1.0000
  Ti  Ti84      1.0  0.93191  0.54169  0.68338  1.0000
  Ti  Ti85      1.0  0.00477  0.29763  0.28181  1.0000
  Ti  Ti86      1.0  0.40670  0.43385  0.25441  1.0000
  Ti  Ti87      1.0  0.91994  0.06090  0.54851  1.0000
  Ti  Ti88      1.0  0.52469  0.91197  0.12092  1.0000
  Ti  Ti89      1.0  0.57792  0.65210  0.23474  1.0000
  Ti  Ti90      1.0  0.80362  0.23540  0.82012  1.0000
  Ti  Ti91      1.0  0.46892  0.56611  0.43601  1.0000
  Ti  Ti92      1.0  0.75794  0.97957  0.75325  1.0000
  Ti  Ti93      1.0  0.75602  0.54092  0.15244  1.0000
  Ti  Ti94      1.0  0.43039  0.74212  0.48885  1.0000
  Ti  Ti95      1.0  0.23694  0.44104  0.00029  1.0000
  Ti  Ti96      1.0  0.04369  0.44617  0.01849  1.0000
  I   I1        1.0  0.01901  0.42527  0.99666  1.0000
  I   I2        1.0  0.37294  0.14129  0.44915  1.0000
  I   I3        1.0  0.50380  0.80364  0.66892  1.0000
  I   I4        1.0  0.24768  0.62843  0.60842  1.0000
  I   I5        1.0  0.32284  0.30820  0.07389  1.0000
  I   I6        1.0  0.41586  0.19601  0.95386  1.0000
  I   I7        1.0  0.47234  0.20253  0.54388  1.0000
  I   I8        1.0  0.45917  0.26708  0.55393  1.0000
  I   I9        1.0  0.29832  0.76194  0.21205  1.0000
  I   I10       1.0  0.78091  0.80234  0.92118  1.0000
  I   I11       1.0  0.21069  0.45184  0.71087  1.0000
  I   I12       1.0  0.09550  0.82374  0.70121  1.0000
  I   I13       1.0  0.28156  0.25382  0.58826  1.0000
  I   I14       1.0  0.07072  0.93898  0.50259  1.0000
  I   I15       1.0  0.64511  0.18301  0.89847  1.0000
  I   I16       1.0  0.63132  0.99280  0.80059  1.0000
  I   I17       1.0  0.50203  0.39885  0.32691  1.0000
  I   I18       1.0  0.13819  0.60760  0.98050  1.0000
  I   I19       1.0  0.47786  0.07208  0.84352  1.0000
  I   I20       1.0  0.27176  0.42936  0.60543  1.0000
  I   I21       1.0  0.05533  0.09310  0.85875  1.0000
  I   I22       1.0  0.67029  0.97816  0.15804  1.0000
  I   I23       1.0  0.65534  0.03758  0.27821  1.0000
  I   I24       1.0  0.61583  0.41921  0.60757  1.0000
  I   I25       1.0  0.84778  0.64314  0.26656  1.0000
  I   I26       1.0  0.38475  0.02805  0.04047  1.0000
  I   I27       1.0  0.19440  0.73972  0.28312  1.0000
  I   I28       1.0  0.63198  0.31054  0.21490  1.0000
  I   I29       1.0  0.88356  0.92029  0.44712  1.0000
  I   I30       1.0  0.81637  0.29006  0.36232  1.0000
  I   I31       1.0  0.78959  0.28731  0.55257  1.0000
  I   I32       1.0  0.66582  0.24781  0.35029  1.0000
  I   I33       1.0  0.37802  0.48054  0.86042  1.0000
  I   I34       1.0  0.81334  0.49681  0.61661  1.0000
  I   I35       1.0  0.91668  0.58724  0.67287  1.0000
  I   I36       1.0  0.55546  0.56719  0.78574  1.0000
  I   I37       1.0  0.00807  0.25992  0.23826  1.0000
  I   I38       1.0  0.88235  0.06642  0.49536  1.0000
  I   I39       1.0  0.02457  0.29956  0.19430  1.0000
  I   I40       1.0  0.61209  0.64608  0.18494  1.0000
  I   I41       1.0  0.75867  0.25987  0.81040  1.0000
  I   I42       1.0  0.41785  0.94828  0.13353  1.0000
  I   I43       1.0  0.68762  0.10782  0.57237  1.0000
  I   I44       1.0  0.74086  0.55391  0.07420  1.0000
  I   I45       1.0  0.42655  0.59443  0.40507  1.0000
  I   I46       1.0  0.32677  0.37977  0.99020  1.0000
  I   I47       1.0  0.99417  0.47717  0.16747  1.0000
  I   I48       1.0  0.38393  0.75856  0.51337  1.0000
  I   I49       1.0  0.47749  0.86474  0.74291  1.0000
  I   I50       1.0  0.30990  0.11682  0.45583  1.0000
  I   I51       1.0  0.37218  0.07362  0.44379  1.0000
  I   I52       1.0  0.95151  0.00427  0.01673  1.0000
  I   I53       1.0  0.18412  0.67773  0.65509  1.0000
  I   I54       1.0  0.42573  0.15646  0.05247  1.0000
  I   I55       1.0  0.82815  0.95442  0.06612  1.0000
  I   I56       1.0  0.46069  0.24330  0.43633  1.0000
  I   I57       1.0  0.24159  0.83306  0.23317  1.0000
  I   I58       1.0  0.79874  0.86798  0.80091  1.0000
  I   I59       1.0  0.75361  0.85672  0.85787  1.0000
  I   I60       1.0  0.10701  0.62970  0.46368  1.0000
  I   I61       1.0  0.27544  0.28564  0.47416  1.0000
  I   I62       1.0  0.20040  0.31716  0.53924  1.0000
  I   I63       1.0  0.11972  0.95130  0.52748  1.0000
  I   I64       1.0  0.57599  0.03211  0.88192  1.0000
  I   I65       1.0  0.13223  0.46720  0.73355  1.0000
  I   I66       1.0  0.49669  0.45511  0.25370  1.0000
  I   I67       1.0  0.72801  0.84025  0.42989  1.0000
  I   I68       1.0  0.46723  0.07313  0.96895  1.0000
  I   I69       1.0  0.03839  0.14741  0.71419  1.0000
  I   I70       1.0  0.62194  0.47505  0.64089  1.0000
  I   I71       1.0  0.60765  0.01863  0.19895  1.0000
  I   I72       1.0  0.10180  0.92162  0.30320  1.0000
  I   I73       1.0  0.21930  0.69561  0.17163  1.0000
  I   I74       1.0  0.36683  0.01202  0.91237  1.0000
  I   I75       1.0  0.36231  0.98978  0.11162  1.0000
  I   I76       1.0  0.68805  0.37754  0.06167  1.0000
  I   I77       1.0  0.65425  0.34898  0.27803  1.0000
  I   I78       1.0  0.83599  0.98467  0.44727  1.0000
  I   I79       1.0  0.40561  0.86493  0.48199  1.0000
  I   I80       1.0  0.81910  0.33853  0.60567  1.0000
  I   I81       1.0  0.65571  0.22551  0.19625  1.0000
  I   I82       1.0  0.56559  0.53820  0.91413  1.0000
  I   I83       1.0  0.73602  0.53416  0.64096  1.0000
  I   I84       1.0  0.95854  0.61565  0.66729  1.0000
  I   I85       1.0  0.02032  0.33638  0.32037  1.0000
  I   I86       1.0  0.38434  0.41154  0.29591  1.0000
  I   I87       1.0  0.84073  0.13423  0.47069  1.0000
  I   I88       1.0  0.39401  0.00008  0.23217  1.0000
  I   I89       1.0  0.55756  0.70106  0.23864  1.0000
  I   I90       1.0  0.81669  0.21958  0.74220  1.0000
  I   I91       1.0  0.45954  0.56211  0.51705  1.0000
  I   I92       1.0  0.73102  0.96537  0.79577  1.0000
  I   I93       1.0  0.79567  0.54119  0.18306  1.0000
  I   I94       1.0  0.47198  0.72668  0.50965  1.0000
  I   I95       1.0  0.26449  0.39565  0.96907  1.0000
  I   I96       1.0  0.03611  0.46908  0.94624  1.0000
  I   I97       1.0  0.96316  0.61241  0.05012  1.0000
  I   I98       1.0  0.52023  0.78312  0.76096  1.0000
  I   I99       1.0  0.25421  0.13569  0.38677  1.0000
  I   I100      1.0  0.90835  0.04510  0.07648  1.0000
  I   I101      1.0  0.92664  0.11177  0.01449  1.0000
  I   I102      1.0  0.15582  0.75941  0.68505  1.0000
  I   I103      1.0  0.83849  0.98418  0.95434  1.0000
  I   I104      1.0  0.91477  0.89858  0.00479  1.0000
  I   I105      1.0  0.24572  0.76261  0.28115  1.0000
  I   I106      1.0  0.06231  0.61800  0.32983  1.0000
  I   I107      1.0  0.84585  0.81208  0.84091  1.0000
  I   I108      1.0  0.06338  0.68786  0.53888  1.0000
  I   I109      1.0  0.55403  0.27270  0.01551  1.0000
  I   I110      1.0  0.23377  0.22495  0.58248  1.0000
  I   I111      1.0  0.03419  0.06844  0.52981  1.0000
  I   I112      1.0  0.09534  0.68636  0.77619  1.0000
  I   I113      1.0  0.11291  0.40824  0.73550  1.0000
  I   I114      1.0  0.41841  0.21643  0.71230  1.0000
  I   I115      1.0  0.76265  0.83679  0.33872  1.0000
  I   I116      1.0  0.67705  0.86333  0.50480  1.0000
  I   I117      1.0  0.00929  0.29351  0.76751  1.0000
  I   I118      1.0  0.67872  0.40508  0.61367  1.0000
  I   I119      1.0  0.64272  0.41119  0.83058  1.0000
  I   I120      1.0  0.05148  0.96677  0.22947  1.0000
  I   I121      1.0  0.14312  0.76101  0.17288  1.0000
  I   I122      1.0  0.71894  0.67736  0.28448  1.0000
  I   I123      1.0  0.38489  0.94050  0.89367  1.0000
  I   I124      1.0  0.84738  0.27932  0.26144  1.0000
  I   I125      1.0  0.63684  0.36050  0.04490  1.0000
  I   I126      1.0  0.79301  0.91026  0.40763  1.0000
  I   I127      1.0  0.39017  0.91031  0.58769  1.0000
  I   I128      1.0  0.83987  0.28066  0.64295  1.0000
  I   I129      1.0  0.70610  0.19482  0.27567  1.0000
  I   I130      1.0  0.97208  0.53625  0.63368  1.0000
  I   I131      1.0  0.49363  0.60917  0.90435  1.0000
  I   I132      1.0  0.75875  0.47672  0.71969  1.0000
  I   I133      1.0  0.82029  0.12661  0.57563  1.0000
  I   I134      1.0  0.42458  0.36479  0.15203  1.0000
  I   I135      1.0  0.44412  0.38450  0.25449  1.0000
  I   I136      1.0  0.87689  0.24286  0.90122  1.0000
  I   I137      1.0  0.54734  0.89633  0.05471  1.0000
  I   I138      1.0  0.60859  0.69919  0.28653  1.0000
  I   I139      1.0  0.44525  0.51075  0.36116  1.0000
  I   I140      1.0  0.75304  0.96963  0.67443  1.0000
  I   I141      1.0  0.71633  0.57285  0.17738  1.0000
  I   I142      1.0  0.48222  0.66182  0.64085  1.0000
  I   I143      1.0  0.29290  0.37649  0.07941  1.0000
  I   I144      1.0  0.05634  0.45033  0.19862  1.0000
  I   I145      1.0  0.55648  0.88355  0.80872  1.0000
  I   I146      1.0  0.33402  0.13692  0.54501  1.0000
  I   I147      1.0  0.00864  0.58115  0.15652  1.0000
  I   I148      1.0  0.97667  0.04676  0.03572  1.0000
  I   I149      1.0  0.13250  0.81641  0.58792  1.0000
  I   I150      1.0  0.41329  0.22168  0.06867  1.0000
  I   I151      1.0  0.84957  0.92373  0.94515  1.0000
  I   I152      1.0  0.51388  0.25966  0.53159  1.0000
  I   I153      1.0  0.26231  0.79606  0.35984  1.0000
  I   I154      1.0  0.62128  0.18798  0.52639  1.0000
  I   I155      1.0  0.20467  0.47663  0.57822  1.0000
  I   I156      1.0  0.07723  0.67055  0.36510  1.0000
  I   I157      1.0  0.64508  0.23583  0.84301  1.0000
  I   I158      1.0  0.07487  0.94737  0.63231  1.0000
  I   I159      1.0  0.56207  0.23947  0.85155  1.0000
  I   I160      1.0  0.08029  0.70594  0.90863  1.0000
  I   I161      1.0  0.48058  0.15783  0.74141  1.0000
  I   I162      1.0  0.10700  0.57628  0.92133  1.0000
  I   I163      1.0  0.64234  0.87436  0.41043  1.0000
  I   I164      1.0  0.96612  0.32670  0.87989  1.0000
  I   I165      1.0  0.01643  0.16345  0.84158  1.0000
  I   I166      1.0  0.64539  0.38634  0.69972  1.0000
  I   I167      1.0  0.72286  0.99305  0.17810  1.0000
  I   I168      1.0  0.95983  0.84097  0.29182  1.0000
  I   I169      1.0  0.80956  0.69593  0.22073  1.0000
  I   I170      1.0  0.75366  0.61118  0.28899  1.0000
  I   I171      1.0  0.14851  0.66476  0.17673  1.0000
  I   I172      1.0  0.77771  0.30181  0.25223  1.0000
  I   I173      1.0  0.81231  0.94708  0.43943  1.0000
  I   I174      1.0  0.74916  0.37913  0.18177  1.0000
  I   I175      1.0  0.89862  0.30510  0.62654  1.0000
  I   I176      1.0  0.57615  0.23956  0.18127  1.0000
  I   I177      1.0  0.30243  0.52432  0.91621  1.0000
  I   I178      1.0  0.44082  0.59089  0.92549  1.0000
  I   I179      1.0  0.79048  0.52016  0.71644  1.0000
  I   I180      1.0  0.91337  0.52269  0.63012  1.0000
  I   I181      1.0  0.99320  0.28832  0.35465  1.0000
  I   I182      1.0  0.43520  0.43942  0.31293  1.0000
  I   I183      1.0  0.94847  0.04881  0.47712  1.0000
  I   I184      1.0  0.55691  0.90613  0.18342  1.0000
  I   I185      1.0  0.53009  0.73449  0.33293  1.0000
  I   I186      1.0  0.80827  0.27111  0.87795  1.0000
  I   I187      1.0  0.75566  0.02008  0.75737  1.0000
  I   I188      1.0  0.83470  0.48168  0.24397  1.0000
  I   I189      1.0  0.44022  0.53371  0.45029  1.0000
  I   I190      1.0  0.20383  0.43006  0.03118  1.0000
  I   I191      1.0  0.20926  0.11244  0.67257  1.0000
  I   I192      1.0  0.43552  0.71177  0.56573  1.0000
  I   I193      1.0  0.51565  0.92548  0.72678  1.0000
  I   I194      1.0  0.19635  0.15449  0.56723  1.0000
  I   I195      1.0  0.94653  0.57127  0.14392  1.0000
  I   I196      1.0  0.89637  0.03694  0.97028  1.0000
  I   I197      1.0  0.68676  0.06794  0.61492  1.0000
  I   I198      1.0  0.35692  0.19658  0.03421  1.0000
  I   I199      1.0  0.90132  0.93983  0.88741  1.0000
  I   I200      1.0  0.40296  0.28241  0.48825  1.0000
  I   I201      1.0  0.29577  0.84883  0.21912  1.0000
  I   I202      1.0  0.81974  0.83927  0.94122  1.0000
  I   I203      1.0  0.08095  0.08705  0.74508  1.0000
  I   I204      1.0  0.03033  0.64240  0.53979  1.0000
  I   I205      1.0  0.25634  0.31849  0.58832  1.0000
  I   I206      1.0  0.04771  0.00074  0.50179  1.0000
  I   I207      1.0  0.60975  0.20031  0.78862  1.0000
  I   I208      1.0  0.56173  0.04593  0.75318  1.0000
  I   I209      1.0  0.43833  0.15288  0.63949  1.0000
  I   I210      1.0  0.06435  0.64581  0.98679  1.0000
  I   I211      1.0  0.71241  0.79957  0.39835  1.0000
  I   I212      1.0  0.52264  0.01381  0.96308  1.0000
  I   I213      1.0  0.01096  0.11972  0.77108  1.0000
  I   I214      1.0  0.66043  0.42803  0.72963  1.0000
  I   I215      1.0  0.65973  0.03933  0.14653  1.0000
  I   I216      1.0  0.92016  0.87635  0.17591  1.0000
  I   I217      1.0  0.76555  0.66190  0.17780  1.0000
  I   I218      1.0  0.32854  0.99097  0.00538  1.0000
  I   I219      1.0  0.20786  0.63901  0.23022  1.0000
  I   I220      1.0  0.62232  0.42521  0.08534  1.0000
  I   I221      1.0  0.86231  0.89826  0.34017  1.0000
  I   I222      1.0  0.80779  0.33615  0.18700  1.0000
  I   I223      1.0  0.76275  0.35534  0.56459  1.0000
  I   I224      1.0  0.62464  0.18095  0.21215  1.0000
  I   I225      1.0  0.36135  0.94170  0.45904  1.0000
  I   I226      1.0  0.49945  0.52821  0.89360  1.0000
  I   I227      1.0  0.73039  0.43012  0.70120  1.0000
  I   I228      1.0  0.95126  0.56916  0.77108  1.0000
  I   I229      1.0  0.04878  0.27716  0.29613  1.0000
  I   I230      1.0  0.42809  0.33347  0.26629  1.0000
  I   I231      1.0  0.93244  0.01855  0.57113  1.0000
  I   I232      1.0  0.35314  0.96182  0.23788  1.0000
  I   I233      1.0  0.55130  0.66482  0.30988  1.0000
  I   I234      1.0  0.84554  0.23912  0.79917  1.0000
  I   I235      1.0  0.63836  0.10411  0.52781  1.0000
  I   I236      1.0  0.75349  0.51267  0.21139  1.0000
  I   I237      1.0  0.50759  0.48387  0.36269  1.0000
  I   I238      1.0  0.32166  0.42517  0.07023  1.0000
  I   I239      1.0  0.08510  0.41437  0.00598  1.0000
  I   I240      1.0  0.42768  0.78051  0.46219  1.0000
  I   I241      1.0  0.52407  0.85420  0.67866  1.0000
  I   I242      1.0  0.26420  0.18583  0.46327  1.0000
  I   I243      1.0  0.94635  0.63306  0.17819  1.0000
  I   I244      1.0  0.97611  0.03204  0.92549  1.0000
  I   I245      1.0  0.23612  0.70045  0.57629  1.0000
  I   I246      1.0  0.35736  0.24710  0.01794  1.0000
  I   I247      1.0  0.90080  0.96449  0.99979  1.0000
  I   I248      1.0  0.52314  0.19586  0.48983  1.0000
  I   I249      1.0  0.30181  0.80180  0.29378  1.0000
  I   I250      1.0  0.77361  0.89114  0.94321  1.0000
  I   I251      1.0  0.23484  0.49381  0.67420  1.0000
  I   I252      1.0  0.13258  0.58477  0.34638  1.0000
  I   I253      1.0  0.21928  0.28676  0.64978  1.0000
  I   I254      1.0  0.08755  0.00874  0.58541  1.0000
  I   I255      1.0  0.53775  0.31140  0.90472  1.0000
  I   I256      1.0  0.07846  0.46550  0.81418  1.0000
  I   I257      1.0  0.42115  0.15922  0.78292  1.0000
  I   I258      1.0  0.13007  0.62177  0.85466  1.0000
  I   I259      1.0  0.66408  0.80985  0.46488  1.0000
  I   I260      1.0  0.94135  0.34961  0.76518  1.0000
  I   I261      1.0  0.08619  0.13346  0.82198  1.0000
  I   I262      1.0  0.67988  0.34056  0.79347  1.0000
  I   I263      1.0  0.62635  0.95458  0.22053  1.0000
  I   I264      1.0  0.98502  0.86520  0.17627  1.0000
  I   I265      1.0  0.78181  0.66852  0.29328  1.0000
  I   I266      1.0  0.31913  0.98639  0.88306  1.0000
  I   I267      1.0  0.19158  0.66942  0.10163  1.0000
  I   I268      1.0  0.64145  0.39251  0.18775  1.0000
  I   I269      1.0  0.80915  0.97337  0.33877  1.0000
  I   I270      1.0  0.81822  0.35025  0.30619  1.0000
  I   I271      1.0  0.89823  0.25303  0.56572  1.0000
  I   I272      1.0  0.64958  0.19639  0.31319  1.0000
  I   I273      1.0  0.33973  0.90253  0.54205  1.0000
  I   I274      1.0  0.50108  0.55831  0.98992  1.0000
  I   I275      1.0  0.78275  0.40682  0.64807  1.0000
  I   I276      1.0  0.95332  0.49532  0.70969  1.0000
  I   I277      1.0  0.99140  0.38034  0.20877  1.0000
  I   I278      1.0  0.38780  0.42099  0.18745  1.0000
  I   I279      1.0  0.90353  0.11170  0.51728  1.0000
  I   I280      1.0  0.48981  0.95184  0.12537  1.0000
  I   I281      1.0  0.60979  0.63942  0.29551  1.0000
  I   I282      1.0  0.80172  0.20441  0.87252  1.0000
  I   I283      1.0  0.69767  0.11098  0.69635  1.0000
  I   I284      1.0  0.85929  0.45391  0.13657  1.0000
  I   I285      1.0  0.48220  0.55066  0.32785  1.0000
  I   I286      1.0  0.20439  0.46759  0.94013  1.0000
  I   I287      1.0  0.04126  0.42285  0.09644  1.0000
  I   I288      1.0  0.51809  0.66053  0.52691  1.0000
  I   I289      1.0  0.55077  0.82638  0.78350  1.0000
  I   I290      1.0  0.14037  0.13666  0.61696  1.0000
  I   I291      1.0  0.33340  0.13646  0.37985  1.0000
  I   I292      1.0  0.91265  0.07647  0.92778  1.0000
  I   I293      1.0  0.18398  0.67425  0.54208  1.0000
  I   I294      1.0  0.38713  0.28730  0.12888  1.0000
  I   I295      1.0  0.88474  0.94673  0.10447  1.0000
  I   I296      1.0  0.51296  0.20594  0.61674  1.0000
  I   I297      1.0  0.27937  0.81924  0.11647  1.0000
  I   I298      1.0  0.67173  0.13218  0.45273  1.0000
  I   I299      1.0  0.80321  0.80492  0.79617  1.0000
  I   I300      1.0  0.06251  0.62577  0.43231  1.0000
  I   I301      1.0  0.59961  0.25275  0.92167  1.0000
  I   I302      1.0  0.23414  0.26267  0.49062  1.0000
  I   I303      1.0  0.08126  0.02616  0.42354  1.0000
  I   I304      1.0  0.07716  0.65003  0.87190  1.0000
  I   I305      1.0  0.57053  0.98509  0.82825  1.0000
  I   I306      1.0  0.37921  0.47842  0.24680  1.0000
  I   I307      1.0  0.77800  0.77642  0.39339  1.0000
  I   I308      1.0  0.47338  0.00866  0.89298  1.0000
  I   I309      1.0  0.95194  0.17829  0.78357  1.0000
  I   I310      1.0  0.70719  0.37841  0.81765  1.0000
  I   I311      1.0  0.62787  0.99610  0.32057  1.0000
  I   I312      1.0  0.12716  0.96216  0.26998  1.0000
  I   I313      1.0  0.15609  0.71155  0.24328  1.0000
  I   I314      1.0  0.80610  0.60897  0.24669  1.0000
  I   I315      1.0  0.32086  0.04550  0.01128  1.0000
  I   I316      1.0  0.77532  0.40941  0.25207  1.0000
  I   I317      1.0  0.58995  0.38031  0.17210  1.0000
  I   I318      1.0  0.87994  0.96572  0.35101  1.0000
  I   I319      1.0  0.32632  0.45493  0.88664  1.0000
  I   I320      1.0  0.77625  0.30713  0.66294  1.0000
  I   I321      1.0  0.57567  0.23034  0.29470  1.0000
  I   I322      1.0  0.55673  0.60516  0.88603  1.0000
  I   I323      1.0  0.77088  0.47198  0.59164  1.0000
  I   I324      1.0  0.00830  0.54404  0.72420  1.0000
  I   I325      1.0  0.96528  0.33872  0.25900  1.0000
  I   I326      1.0  0.44060  0.44128  0.20646  1.0000
  I   I327      1.0  0.88800  0.07924  0.61216  1.0000
  I   I328      1.0  0.41345  0.93307  0.24550  1.0000
  I   I329      1.0  0.55458  0.63876  0.17982  1.0000
  I   I330      1.0  0.87480  0.27857  0.79471  1.0000
  I   I331      1.0  0.51366  0.52660  0.44254  1.0000
  I   I332      1.0  0.64158  0.09477  0.68618  1.0000
  I   I333      1.0  0.79233  0.49922  0.10409  1.0000
  I   I334      1.0  0.43304  0.71729  0.42655  1.0000
  I   I335      1.0  0.24567  0.43824  0.08740  1.0000
  I   I336      1.0  0.00152  0.48106  0.05453  1.0000
  I   I337      1.0  0.56830  0.87688  0.69337  1.0000
  I   I338      1.0  0.14729  0.19099  0.65387  1.0000
  I   I339      1.0  0.27490  0.18603  0.33595  1.0000
  I   I340      1.0  0.96412  0.09747  0.91947  1.0000
  I   I341      1.0  0.09843  0.76970  0.62504  1.0000
  I   I342      1.0  0.38161  0.29286  0.00193  1.0000
  I   I343      1.0  0.83446  0.01087  0.05102  1.0000
  I   I344      1.0  0.40386  0.22967  0.52773  1.0000
  I   I345      1.0  0.33831  0.79236  0.17848  1.0000
  I   I346      1.0  0.62221  0.14694  0.60823  1.0000
  I   I347      1.0  0.75259  0.85324  0.01548  1.0000
  I   I348      1.0  0.01548  0.69042  0.45690  1.0000
  I   I349      1.0  0.51385  0.26339  0.93052  1.0000
  I   I350      1.0  0.17104  0.27827  0.59549  1.0000
  I   I351      1.0  0.10718  0.04117  0.50691  1.0000
  I   I352      1.0  0.14214  0.67619  0.87354  1.0000
  I   I353      1.0  0.14833  0.42803  0.83456  1.0000
  I   I354      1.0  0.50678  0.39409  0.20417  1.0000
  I   I355      1.0  0.73738  0.79573  0.28094  1.0000
  I   I356      1.0  0.99528  0.36098  0.81149  1.0000
  I   I357      1.0  0.97426  0.21339  0.77969  1.0000
  I   I358      1.0  0.93587  0.91231  0.27084  1.0000
  I   I359      1.0  0.68290  0.97112  0.28285  1.0000
  I   I360      1.0  0.10543  0.93457  0.16003  1.0000
  I   I361      1.0  0.19929  0.76248  0.17271  1.0000
  I   I362      1.0  0.83754  0.63780  0.15005  1.0000
  I   I363      1.0  0.39054  0.96426  0.00192  1.0000
  I   I364      1.0  0.76325  0.35888  0.31937  1.0000
  I   I365      1.0  0.66032  0.33751  0.14419  1.0000
  I   I366      1.0  0.79995  0.90989  0.29626  1.0000
  I   I367      1.0  0.35253  0.46547  0.98877  1.0000
  I   I368      1.0  0.87245  0.32487  0.52787  1.0000
  I   I369      1.0  0.61737  0.25950  0.27407  1.0000
  I   I370      1.0  0.50723  0.56421  0.82175  1.0000
  I   I371      1.0  0.70726  0.48672  0.63941  1.0000
  I   I372      1.0  0.90530  0.54716  0.74746  1.0000
  I   I373      1.0  0.05667  0.34588  0.21787  1.0000
  I   I374      1.0  0.36664  0.37157  0.22210  1.0000
  I   I375      1.0  0.95172  0.06735  0.58007  1.0000
  I   I376      1.0  0.50555  0.88647  0.14309  1.0000
  I   I377      1.0  0.58494  0.68589  0.39735  1.0000
  I   I378      1.0  0.83029  0.31680  0.88042  1.0000
  I   I379      1.0  0.48271  0.59473  0.45535  1.0000
  I   I380      1.0  0.79819  0.94622  0.75947  1.0000
  I   I381      1.0  0.84691  0.51221  0.11836  1.0000
  I   I382      1.0  0.50604  0.70634  0.62375  1.0000
  I   I383      1.0  0.27093  0.45842  0.99590  1.0000
  I   I384      1.0  0.05301  0.48951  0.10310  1.0000
