data_image0
_chemical_formula_structural       Ti96I384
_chemical_formula_sum              "Ti96 I384"
_cell_length_a       65.7292
_cell_length_b       65.4047
_cell_length_c       31.9872
_cell_angle_alpha    88.7757
_cell_angle_beta     88.7757
_cell_angle_gamma    62.1586

_space_group_name_H-M_alt    "P 1"
_space_group_IT_number       1

loop_
  _space_group_symop_operation_xyz
  'x, y, z'

loop_
  _atom_site_type_symbol
  _atom_site_label
  _atom_site_symmetry_multiplicity
  _atom_site_fract_x
  _atom_site_fract_y
  _atom_site_fract_z
  _atom_site_occupancy
  Ti  Ti1       1.0  0.56930  0.84078  0.55511  1.0000
  Ti  Ti2       1.0  0.45602  0.06589  0.29220  1.0000
  Ti  Ti3       1.0  0.87363  0.76413  0.31070  1.0000
  Ti  Ti4       1.0  0.08570  0.96132  0.93657  1.0000
  Ti  Ti5       1.0  0.82284  0.79877  0.69014  1.0000
  Ti  Ti6       1.0  0.45042  0.27501  0.69752  1.0000
  Ti  Ti7       1.0  0.82850  0.09631  0.25629  1.0000
  Ti  Ti8       1.0  0.48781  0.18243  0.12528  1.0000
  Ti  Ti9       1.0  0.30467  0.81903  0.78365  1.0000
  Ti  Ti10      1.0  0.67385  0.94168  0.55568  1.0000
  Ti  Ti11      1.0  0.98644  0.49429  0.67920  1.0000
  Ti  Ti12      1.0  0.10783  0.57517  0.41481  1.0000
  Ti  Ti13      1.0  0.21819  0.12737  0.51340  1.0000
  Ti  Ti14      1.0  0.10445  0.03099  0.39642  1.0000
  Ti  Ti15      1.0  0.58914  0.23084  0.75745  1.0000
  Ti  Ti16      1.0  0.68984  0.89869  0.71912  1.0000
  Ti  Ti17      1.0  0.34753  0.05268  0.60578  1.0000
  Ti  Ti18      1.0  0.08439  0.68532  0.08821  1.0000
  Ti  Ti19      1.0  0.43246  0.81274  0.27021  1.0000
  Ti  Ti20      1.0  0.41605  0.96363  0.53214  1.0000
  Ti  Ti21      1.0  0.21711  0.00447  0.92725  1.0000
  Ti  Ti22      1.0  0.67437  0.42594  0.39790  1.0000
  Ti  Ti23      1.0  0.51121  0.07204  0.56039  1.0000
  Ti  Ti24      1.0  0.01785  0.88582  0.38625  1.0000
  Ti  Ti25      1.0  0.65244  0.73775  0.99996  1.0000
  Ti  Ti26      1.0  0.50713  0.88187  0.10413  1.0000
  Ti  Ti27      1.0  0.97075  0.81387  0.30013  1.0000
  Ti  Ti28      1.0  0.68844  0.33831  0.97154  1.0000
  Ti  Ti29      1.0  0.80600  0.00577  0.57639  1.0000
  Ti  Ti30      1.0  0.86225  0.23108  0.50264  1.0000
  Ti  Ti31      1.0  0.77106  0.25454  0.77947  1.0000
  Ti  Ti32      1.0  0.72847  0.27646  0.24071  1.0000
  Ti  Ti33      1.0  0.35071  0.85026  0.99811  1.0000
  Ti  Ti34      1.0  0.50368  0.50473  0.97924  1.0000
  Ti  Ti35      1.0  0.74303  0.56702  0.45885  1.0000
  Ti  Ti36      1.0  0.82226  0.62503  0.34994  1.0000
  Ti  Ti37      1.0  0.00159  0.42732  0.29304  1.0000
  Ti  Ti38      1.0  0.54514  0.28152  0.99612  1.0000
  Ti  Ti39      1.0  0.99114  0.84602  0.85602  1.0000
  Ti  Ti40      1.0  0.14547  0.13981  0.32797  1.0000
  Ti  Ti41      1.0  0.56857  0.66587  0.99649  1.0000
  Ti  Ti42      1.0  0.86735  0.36074  0.08133  1.0000
  Ti  Ti43      1.0  0.65113  0.16420  0.46387  1.0000
  Ti  Ti44      1.0  0.81200  0.54729  0.94233  1.0000
  Ti  Ti45      1.0  0.35570  0.60825  0.82192  1.0000
  Ti  Ti46      1.0  0.32812  0.49737  0.44344  1.0000
  Ti  Ti47      1.0  0.11590  0.56126  0.07776  1.0000
  Ti  Ti48      1.0  0.51912  0.63669  0.58017  1.0000
  Ti  Ti49      1.0  0.63896  0.73246  0.68443  1.0000
  Ti  Ti50      1.0  0.08304  0.13796  0.05864  1.0000
  Ti  Ti51      1.0  0.48536  0.03732  0.18671  1.0000
  Ti  Ti52      1.0  0.06804  0.02402  0.87435  1.0000
  Ti  Ti53      1.0  0.28535  0.57054  0.57018  1.0000
  Ti  Ti54      1.0  0.49187  0.20361  0.67074  1.0000
  Ti  Ti55      1.0  0.83928  0.06553  0.17916  1.0000
  Ti  Ti56      1.0  0.44141  0.20992  0.11218  1.0000
  Ti  Ti57      1.0  0.28453  0.81309  0.65390  1.0000
  Ti  Ti58      1.0  0.68692  0.19041  0.41603  1.0000
  Ti  Ti59      1.0  0.48135  0.09585  0.91790  1.0000
  Ti  Ti60      1.0  0.12365  0.63252  0.46396  1.0000
  Ti  Ti61      1.0  0.64621  0.22929  0.77910  1.0000
  Ti  Ti62      1.0  0.15977  0.16616  0.51634  1.0000
  Ti  Ti63      1.0  0.12440  0.01556  0.48609  1.0000
  Ti  Ti64      1.0  0.13966  0.67654  0.14844  1.0000
  Ti  Ti65      1.0  0.10718  0.32689  0.71486  1.0000
  Ti  Ti66      1.0  0.47285  0.32914  0.19777  1.0000
  Ti  Ti67      1.0  0.47949  0.80234  0.36572  1.0000
  Ti  Ti68      1.0  0.10517  0.30482  0.07590  1.0000
  Ti  Ti69      1.0  0.21701  0.05605  0.92336  1.0000
  Ti  Ti70      1.0  0.62564  0.48345  0.37618  1.0000
  Ti  Ti71      1.0  0.57994  0.04194  0.56060  1.0000
  Ti  Ti72      1.0  0.23541  0.90863  0.26876  1.0000
  Ti  Ti73      1.0  0.96582  0.86512  0.30731  1.0000
  Ti  Ti74      1.0  0.62974  0.79175  0.98378  1.0000
  Ti  Ti75      1.0  0.46935  0.93928  0.03404  1.0000
  Ti  Ti76      1.0  0.80401  0.24758  0.43777  1.0000
  Ti  Ti77      1.0  0.72183  0.37298  0.98349  1.0000
  Ti  Ti78      1.0  0.86948  0.97840  0.53442  1.0000
  Ti  Ti79      1.0  0.52770  0.41396  0.58236  1.0000
  Ti  Ti80      1.0  0.82968  0.11842  0.59147  1.0000
  Ti  Ti81      1.0  0.67033  0.27904  0.24456  1.0000
  Ti  Ti82      1.0  0.55889  0.51947  0.91665  1.0000
  Ti  Ti83      1.0  0.73309  0.53546  0.57854  1.0000
  Ti  Ti84      1.0  0.84233  0.58594  0.26520  1.0000
  Ti  Ti85      1.0  0.92184  0.47988  0.29292  1.0000
  Ti  Ti86      1.0  0.48534  0.31780  0.08605  1.0000
  Ti  Ti87      1.0  0.97667  0.84597  0.72197  1.0000
  Ti  Ti88      1.0  0.56860  0.92168  0.28074  1.0000
  Ti  Ti89      1.0  0.58960  0.63212  0.91290  1.0000
  Ti  Ti90      1.0  0.88937  0.30555  0.98613  1.0000
  Ti  Ti91      1.0  0.32746  0.67485  0.81346  1.0000
  Ti  Ti92      1.0  0.81775  0.02273  0.86273  1.0000
  Ti  Ti93      1.0  0.78758  0.61616  0.94637  1.0000
  Ti  Ti94      1.0  0.55456  0.59355  0.54527  1.0000
  Ti  Ti95      1.0  0.31902  0.51268  0.34236  1.0000
  Ti  Ti96      1.0  0.10138  0.50059  0.03509  1.0000
  I   I1        1.0  0.10221  0.46525  0.07226  1.0000
  I   I2        1.0  0.51761  0.03730  0.24277  1.0000
  I   I3        1.0  0.62009  0.74215  0.76497  1.0000
  I   I4        1.0  0.32532  0.53265  0.56786  1.0000
  I   I5        1.0  0.44109  0.24271  0.66786  1.0000
  I   I6        1.0  0.50353  0.20435  0.75234  1.0000
  I   I7        1.0  0.51178  0.13699  0.11618  1.0000
  I   I8        1.0  0.42701  0.24873  0.16586  1.0000
  I   I9        1.0  0.33086  0.78670  0.83633  1.0000
  I   I10       1.0  0.71092  0.91665  0.59806  1.0000
  I   I11       1.0  0.99868  0.46804  0.61120  1.0000
  I   I12       1.0  0.78214  0.83238  0.68184  1.0000
  I   I13       1.0  0.13583  0.18187  0.45033  1.0000
  I   I14       1.0  0.13285  0.97392  0.46405  1.0000
  I   I15       1.0  0.59539  0.19038  0.73746  1.0000
  I   I16       1.0  0.67935  0.88663  0.79080  1.0000
  I   I17       1.0  0.48409  0.35666  0.23976  1.0000
  I   I18       1.0  0.11957  0.64875  0.14287  1.0000
  I   I19       1.0  0.42591  0.97749  0.46231  1.0000
  I   I20       1.0  0.94973  0.52454  0.64534  1.0000
  I   I21       1.0  0.22364  0.97499  0.85528  1.0000
  I   I22       1.0  0.54560  0.06085  0.62455  1.0000
  I   I23       1.0  0.49316  0.07261  0.48786  1.0000
  I   I24       1.0  0.59396  0.48059  0.43101  1.0000
  I   I25       1.0  0.60511  0.83163  0.02742  1.0000
  I   I26       1.0  0.47708  0.93404  0.11796  1.0000
  I   I27       1.0  0.95580  0.79520  0.24343  1.0000
  I   I28       1.0  0.74236  0.33910  0.03696  1.0000
  I   I29       1.0  0.84977  0.01439  0.58500  1.0000
  I   I30       1.0  0.81254  0.22243  0.37346  1.0000
  I   I31       1.0  0.82617  0.15705  0.61762  1.0000
  I   I32       1.0  0.64657  0.28613  0.30692  1.0000
  I   I33       1.0  0.52710  0.44112  0.52666  1.0000
  I   I34       1.0  0.76753  0.50568  0.62723  1.0000
  I   I35       1.0  0.78172  0.64623  0.31280  1.0000
  I   I36       1.0  0.48954  0.54388  0.02341  1.0000
  I   I37       1.0  0.88764  0.49930  0.34640  1.0000
  I   I38       1.0  0.97835  0.87636  0.77835  1.0000
  I   I39       1.0  0.96944  0.45664  0.24485  1.0000
  I   I40       1.0  0.61816  0.58815  0.90659  1.0000
  I   I41       1.0  0.92482  0.29557  0.94370  1.0000
  I   I42       1.0  0.12728  0.18364  0.32300  1.0000
  I   I43       1.0  0.65412  0.21094  0.36446  1.0000
  I   I44       1.0  0.78518  0.65763  0.92384  1.0000
  I   I45       1.0  0.33639  0.70799  0.83031  1.0000
  I   I46       1.0  0.35487  0.47963  0.30730  1.0000
  I   I47       1.0  0.08553  0.59842  0.10802  1.0000
  I   I48       1.0  0.54357  0.56097  0.52724  1.0000
  I   I49       1.0  0.64870  0.76860  0.68994  1.0000
  I   I50       1.0  0.47592  0.06591  0.36754  1.0000
  I   I51       1.0  0.45572  0.09909  0.24860  1.0000
  I   I52       1.0  0.07504  0.01515  0.96208  1.0000
  I   I53       1.0  0.29564  0.60163  0.53830  1.0000
  I   I54       1.0  0.52718  0.17436  0.62126  1.0000
  I   I55       1.0  0.85853  0.10539  0.20036  1.0000
  I   I56       1.0  0.47776  0.22260  0.07219  1.0000
  I   I57       1.0  0.24146  0.84761  0.63993  1.0000
  I   I58       1.0  0.64123  0.98068  0.58832  1.0000
  I   I59       1.0  0.49766  0.12559  0.91403  1.0000
  I   I60       1.0  0.06357  0.58941  0.39058  1.0000
  I   I61       1.0  0.17992  0.11933  0.49525  1.0000
  I   I62       1.0  0.20268  0.16167  0.45402  1.0000
  I   I63       1.0  0.10163  0.06191  0.45255  1.0000
  I   I64       1.0  0.73147  0.89411  0.73309  1.0000
  I   I65       1.0  0.09598  0.33123  0.63782  1.0000
  I   I66       1.0  0.50069  0.28801  0.23463  1.0000
  I   I67       1.0  0.42967  0.78018  0.23140  1.0000
  I   I68       1.0  0.39215  0.99664  0.58889  1.0000
  I   I69       1.0  0.17858  0.10006  0.89966  1.0000
  I   I70       1.0  0.65404  0.41650  0.45896  1.0000
  I   I71       1.0  0.49057  0.11338  0.59193  1.0000
  I   I72       1.0  0.27867  0.88912  0.25667  1.0000
  I   I73       1.0  0.95253  0.87322  0.22331  1.0000
  I   I74       1.0  0.46442  0.89848  0.05319  1.0000
  I   I75       1.0  0.50039  0.91508  0.97929  1.0000
  I   I76       1.0  0.65390  0.36218  0.92168  1.0000
  I   I77       1.0  0.69553  0.41613  0.99664  1.0000
  I   I78       1.0  0.89829  0.95421  0.58845  1.0000
  I   I79       1.0  0.36626  0.82342  0.93322  1.0000
  I   I80       1.0  0.77576  0.23176  0.84656  1.0000
  I   I81       1.0  0.68726  0.31389  0.26659  1.0000
  I   I82       1.0  0.54729  0.55031  0.85509  1.0000
  I   I83       1.0  0.71067  0.59427  0.40809  1.0000
  I   I84       1.0  0.80985  0.59807  0.38992  1.0000
  I   I85       1.0  0.95664  0.43267  0.32096  1.0000
  I   I86       1.0  0.52571  0.32640  0.03237  1.0000
  I   I87       1.0  0.97597  0.88067  0.90529  1.0000
  I   I88       1.0  0.12315  0.13183  0.27293  1.0000
  I   I89       1.0  0.55329  0.67854  0.91324  1.0000
  I   I90       1.0  0.88351  0.27328  0.02493  1.0000
  I   I91       1.0  0.28545  0.70181  0.79267  1.0000
  I   I92       1.0  0.82859  0.98131  0.85723  1.0000
  I   I93       1.0  0.83403  0.57737  0.93858  1.0000
  I   I94       1.0  0.50050  0.66333  0.51550  1.0000
  I   I95       1.0  0.30539  0.54283  0.40514  1.0000
  I   I96       1.0  0.05738  0.52733  0.02447  1.0000
  I   I97       1.0  0.90970  0.74217  0.35216  1.0000
  I   I98       1.0  0.55583  0.86845  0.61791  1.0000
  I   I99       1.0  0.42024  0.08465  0.33871  1.0000
  I   I100      1.0  0.12569  0.94239  0.97966  1.0000
  I   I101      1.0  0.02504  0.05064  0.88393  1.0000
  I   I102      1.0  0.84830  0.82000  0.69438  1.0000
  I   I103      1.0  0.81505  0.04353  0.18705  1.0000
  I   I104      1.0  0.80618  0.14462  0.25667  1.0000
  I   I105      1.0  0.29074  0.84663  0.70057  1.0000
  I   I106      1.0  0.11758  0.67408  0.43981  1.0000
  I   I107      1.0  0.68524  0.95693  0.49183  1.0000
  I   I108      1.0  0.13969  0.58847  0.38956  1.0000
  I   I109      1.0  0.68944  0.20228  0.79529  1.0000
  I   I110      1.0  0.15664  0.20544  0.54538  1.0000
  I   I111      1.0  0.14910  0.01155  0.40014  1.0000
  I   I112      1.0  0.06174  0.72285  0.03961  1.0000
  I   I113      1.0  0.10250  0.36197  0.76420  1.0000
  I   I114      1.0  0.37652  0.05000  0.66663  1.0000
  I   I115      1.0  0.43312  0.83634  0.34408  1.0000
  I   I116      1.0  0.50163  0.82532  0.33911  1.0000
  I   I117      1.0  0.14033  0.27346  0.12212  1.0000
  I   I118      1.0  0.60457  0.52877  0.36772  1.0000
  I   I119      1.0  0.60847  0.48283  0.30328  1.0000
  I   I120      1.0  0.23137  0.94539  0.31316  1.0000
  I   I121      1.0  0.92473  0.84696  0.30451  1.0000
  I   I122      1.0  0.67243  0.69458  0.02746  1.0000
  I   I123      1.0  0.54413  0.88971  0.08680  1.0000
  I   I124      1.0  0.75659  0.26889  0.42692  1.0000
  I   I125      1.0  0.72701  0.29781  0.96118  1.0000
  I   I126      1.0  0.80288  0.00103  0.65416  1.0000
  I   I127      1.0  0.32144  0.84589  0.04885  1.0000
  I   I128      1.0  0.79261  0.11433  0.57540  1.0000
  I   I129      1.0  0.65851  0.25051  0.20638  1.0000
  I   I130      1.0  0.88582  0.55126  0.24948  1.0000
  I   I131      1.0  0.55358  0.49137  0.99300  1.0000
  I   I132      1.0  0.72891  0.56388  0.63719  1.0000
  I   I133      1.0  0.96890  0.82482  0.88627  1.0000
  I   I134      1.0  0.52314  0.27224  0.94169  1.0000
  I   I135      1.0  0.45841  0.33521  0.02292  1.0000
  I   I136      1.0  0.85268  0.40349  0.05749  1.0000
  I   I137      1.0  0.53063  0.91669  0.30180  1.0000
  I   I138      1.0  0.60963  0.65332  0.94653  1.0000
  I   I139      1.0  0.37539  0.57336  0.76342  1.0000
  I   I140      1.0  0.82085  0.03860  0.78705  1.0000
  I   I141      1.0  0.79816  0.62590  0.02111  1.0000
  I   I142      1.0  0.48606  0.62420  0.59965  1.0000
  I   I143      1.0  0.36728  0.45774  0.43506  1.0000
  I   I144      1.0  0.10710  0.51780  0.10845  1.0000
  I   I145      1.0  0.53424  0.83492  0.52220  1.0000
  I   I146      1.0  0.47731  0.01817  0.27836  1.0000
  I   I147      1.0  0.85266  0.73834  0.29743  1.0000
  I   I148      1.0  0.05393  0.01406  0.79215  1.0000
  I   I149      1.0  0.85398  0.77319  0.63717  1.0000
  I   I150      1.0  0.49543  0.24351  0.65464  1.0000
  I   I151      1.0  0.86911  0.03632  0.13300  1.0000
  I   I152      1.0  0.46876  0.17843  0.05000  1.0000
  I   I153      1.0  0.30903  0.80298  0.58904  1.0000
  I   I154      1.0  0.69790  0.22231  0.42970  1.0000
  I   I155      1.0  0.98071  0.49453  0.76359  1.0000
  I   I156      1.0  0.11248  0.65214  0.53762  1.0000
  I   I157      1.0  0.56862  0.24789  0.68569  1.0000
  I   I158      1.0  0.10653  0.02480  0.55939  1.0000
  I   I159      1.0  0.66420  0.25617  0.74019  1.0000
  I   I160      1.0  0.04805  0.68189  0.10280  1.0000
  I   I161      1.0  0.32591  0.09611  0.59794  1.0000
  I   I162      1.0  0.18225  0.63820  0.14233  1.0000
  I   I163      1.0  0.47626  0.82707  0.43341  1.0000
  I   I164      1.0  0.09619  0.28154  0.02013  1.0000
  I   I165      1.0  0.21782  0.04014  0.99616  1.0000
  I   I166      1.0  0.67230  0.46008  0.33346  1.0000
  I   I167      1.0  0.54675  0.02989  0.51280  1.0000
  I   I168      1.0  0.98251  0.89959  0.43710  1.0000
  I   I169      1.0  0.60619  0.76264  0.01674  1.0000
  I   I170      1.0  0.69508  0.72919  0.99889  1.0000
  I   I171      1.0  0.01056  0.81672  0.28626  1.0000
  I   I172      1.0  0.81263  0.23186  0.51988  1.0000
  I   I173      1.0  0.83246  0.95961  0.58334  1.0000
  I   I174      1.0  0.89149  0.24847  0.49293  1.0000
  I   I175      1.0  0.73958  0.25733  0.73007  1.0000
  I   I176      1.0  0.74359  0.30521  0.21080  1.0000
  I   I177      1.0  0.56090  0.40838  0.63621  1.0000
  I   I178      1.0  0.58147  0.48501  0.87053  1.0000
  I   I179      1.0  0.71197  0.57161  0.51512  1.0000
  I   I180      1.0  0.83153  0.58636  0.18594  1.0000
  I   I181      1.0  0.93918  0.50893  0.29822  1.0000
  I   I182      1.0  0.45749  0.35973  0.13130  1.0000
  I   I183      1.0  0.93897  0.87777  0.67588  1.0000
  I   I184      1.0  0.56932  0.95878  0.26548  1.0000
  I   I185      1.0  0.58713  0.62570  0.04182  1.0000
  I   I186      1.0  0.87018  0.35352  0.98819  1.0000
  I   I187      1.0  0.77583  0.04912  0.89116  1.0000
  I   I188      1.0  0.82676  0.50734  0.90364  1.0000
  I   I189      1.0  0.33801  0.64299  0.75263  1.0000
  I   I190      1.0  0.32370  0.54521  0.30021  1.0000
  I   I191      1.0  0.12122  0.13845  0.04482  1.0000
  I   I192      1.0  0.56786  0.62891  0.56670  1.0000
  I   I193      1.0  0.61003  0.81824  0.59264  1.0000
  I   I194      1.0  0.05513  0.18150  0.09122  1.0000
  I   I195      1.0  0.89241  0.76540  0.23689  1.0000
  I   I196      1.0  0.10230  0.92229  0.89618  1.0000
  I   I197      1.0  0.68438  0.14504  0.40288  1.0000
  I   I198      1.0  0.42023  0.29939  0.76168  1.0000
  I   I199      1.0  0.81696  0.09995  0.12404  1.0000
  I   I200      1.0  0.41652  0.24675  0.05086  1.0000
  I   I201      1.0  0.31837  0.85290  0.78893  1.0000
  I   I202      1.0  0.49708  0.07357  0.84607  1.0000
  I   I203      1.0  0.18604  0.03927  0.88148  1.0000
  I   I204      1.0  0.09657  0.57168  0.49808  1.0000
  I   I205      1.0  0.12420  0.16705  0.55781  1.0000
  I   I206      1.0  0.16186  0.02786  0.49304  1.0000
  I   I207      1.0  0.55355  0.24453  0.80390  1.0000
  I   I208      1.0  0.68389  0.87294  0.66160  1.0000
  I   I209      1.0  0.32468  0.03191  0.63331  1.0000
  I   I210      1.0  0.14425  0.69477  0.08109  1.0000
  I   I211      1.0  0.47804  0.77909  0.30119  1.0000
  I   I212      1.0  0.45024  0.93099  0.57079  1.0000
  I   I213      1.0  0.24594  0.07154  0.94354  1.0000
  I   I214      1.0  0.65956  0.47216  0.44044  1.0000
  I   I215      1.0  0.50148  0.04518  0.60850  1.0000
  I   I216      1.0  0.03366  0.84189  0.37191  1.0000
  I   I217      1.0  0.64524  0.75743  0.91643  1.0000
  I   I218      1.0  0.46626  0.97983  0.04009  1.0000
  I   I219      1.0  0.92650  0.90649  0.31013  1.0000
  I   I220      1.0  0.66926  0.31661  0.01189  1.0000
  I   I221      1.0  0.76914  0.00389  0.55697  1.0000
  I   I222      1.0  0.85470  0.21884  0.43088  1.0000
  I   I223      1.0  0.78584  0.28582  0.77125  1.0000
  I   I224      1.0  0.76909  0.24006  0.24226  1.0000
  I   I225      1.0  0.38228  0.84875  0.05230  1.0000
  I   I226      1.0  0.51472  0.52764  0.90781  1.0000
  I   I227      1.0  0.76631  0.53086  0.51453  1.0000
  I   I228      1.0  0.86349  0.58915  0.33772  1.0000
  I   I229      1.0  0.02635  0.44849  0.28173  1.0000
  I   I230      1.0  0.57089  0.28823  0.94066  1.0000
  I   I231      1.0  0.97142  0.80981  0.70588  1.0000
  I   I232      1.0  0.09274  0.05978  0.32686  1.0000
  I   I233      1.0  0.55769  0.70313  0.03610  1.0000
  I   I234      1.0  0.91038  0.32670  0.05145  1.0000
  I   I235      1.0  0.65589  0.14658  0.53746  1.0000
  I   I236      1.0  0.74818  0.62030  0.94130  1.0000
  I   I237      1.0  0.31425  0.62018  0.83398  1.0000
  I   I238      1.0  0.35319  0.51935  0.45846  1.0000
  I   I239      1.0  0.11699  0.48787  0.96241  1.0000
  I   I240      1.0  0.53523  0.61368  0.47445  1.0000
  I   I241      1.0  0.67214  0.69593  0.66622  1.0000
  I   I242      1.0  0.48080  0.00542  0.15202  1.0000
  I   I243      1.0  0.84840  0.80331  0.34654  1.0000
  I   I244      1.0  0.09295  0.97855  0.86750  1.0000
  I   I245      1.0  0.24784  0.57378  0.53835  1.0000
  I   I246      1.0  0.47522  0.17088  0.66118  1.0000
  I   I247      1.0  0.86349  0.04476  0.25401  1.0000
  I   I248      1.0  0.52084  0.18016  0.18001  1.0000
  I   I249      1.0  0.27692  0.77876  0.64370  1.0000
  I   I250      1.0  0.51308  0.06046  0.95698  1.0000
  I   I251      1.0  0.01340  0.51243  0.67854  1.0000
  I   I252      1.0  0.16726  0.60833  0.47210  1.0000
  I   I253      1.0  0.19634  0.12494  0.58212  1.0000
  I   I254      1.0  0.07929  0.02550  0.46273  1.0000
  I   I255      1.0  0.62895  0.23289  0.85599  1.0000
  I   I256      1.0  0.14362  0.28553  0.72049  1.0000
  I   I257      1.0  0.36392  0.04949  0.52646  1.0000
  I   I258      1.0  0.09164  0.71038  0.16030  1.0000
  I   I259      1.0  0.46426  0.78232  0.41849  1.0000
  I   I260      1.0  0.11489  0.33398  0.03944  1.0000
  I   I261      1.0  0.18855  0.99734  0.97586  1.0000
  I   I262      1.0  0.71817  0.39521  0.41833  1.0000
  I   I263      1.0  0.60465  0.04183  0.61973  1.0000
  I   I264      1.0  0.06086  0.87633  0.39416  1.0000
  I   I265      1.0  0.65362  0.76508  0.06942  1.0000
  I   I266      1.0  0.52155  0.84969  0.05334  1.0000
  I   I267      1.0  0.98702  0.89028  0.31861  1.0000
  I   I268      1.0  0.67607  0.37160  0.03032  1.0000
  I   I269      1.0  0.89321  0.97462  0.46699  1.0000
  I   I270      1.0  0.80904  0.28552  0.44387  1.0000
  I   I271      1.0  0.80817  0.21963  0.74356  1.0000
  I   I272      1.0  0.64099  0.31393  0.20510  1.0000
  I   I273      1.0  0.33020  0.89007  0.96288  1.0000
  I   I274      1.0  0.59343  0.52791  0.94560  1.0000
  I   I275      1.0  0.75982  0.59532  0.47082  1.0000
  I   I276      1.0  0.83124  0.54838  0.26953  1.0000
  I   I277      1.0  0.01963  0.40331  0.35808  1.0000
  I   I278      1.0  0.51896  0.27735  0.06533  1.0000
  I   I279      1.0  0.03212  0.82109  0.88488  1.0000
  I   I280      1.0  0.59476  0.90540  0.34636  1.0000
  I   I281      1.0  0.56004  0.61569  0.92797  1.0000
  I   I282      1.0  0.88745  0.36427  0.14962  1.0000
  I   I283      1.0  0.61893  0.20161  0.47182  1.0000
  I   I284      1.0  0.79242  0.58606  0.86944  1.0000
  I   I285      1.0  0.38081  0.57284  0.87781  1.0000
  I   I286      1.0  0.27949  0.51696  0.31968  1.0000
  I   I287      1.0  0.13947  0.57438  0.02429  1.0000
  I   I288      1.0  0.54189  0.59483  0.62999  1.0000
  I   I289      1.0  0.60677  0.72885  0.64219  1.0000
  I   I290      1.0  0.06395  0.14227  0.98748  1.0000
  I   I291      1.0  0.48739  0.06198  0.12826  1.0000
  I   I292      1.0  0.09250  0.04440  0.84396  1.0000
  I   I293      1.0  0.28491  0.56909  0.65043  1.0000
  I   I294      1.0  0.47659  0.28804  0.73712  1.0000
  I   I295      1.0  0.79698  0.08900  0.28763  1.0000
  I   I296      1.0  0.45454  0.17841  0.17361  1.0000
  I   I297      1.0  0.26351  0.83892  0.80706  1.0000
  I   I298      1.0  0.73556  0.17140  0.40397  1.0000
  I   I299      1.0  0.65799  0.91779  0.51868  1.0000
  I   I300      1.0  0.08714  0.62551  0.44965  1.0000
  I   I301      1.0  0.60201  0.26723  0.78111  1.0000
  I   I302      1.0  0.24819  0.14064  0.54502  1.0000
  I   I303      1.0  0.17901  0.13626  0.28267  1.0000
  I   I304      1.0  0.10164  0.66771  0.01529  1.0000
  I   I305      1.0  0.66957  0.94077  0.68971  1.0000
  I   I306      1.0  0.51547  0.31556  0.15710  1.0000
  I   I307      1.0  0.44250  0.83891  0.22440  1.0000
  I   I308      1.0  0.39494  0.94246  0.50214  1.0000
  I   I309      1.0  0.25118  0.01714  0.88652  1.0000
  I   I310      1.0  0.66010  0.41792  0.32427  1.0000
  I   I311      1.0  0.55579  0.08014  0.52222  1.0000
  I   I312      1.0  0.21373  0.92839  0.20148  1.0000
  I   I313      1.0  0.95832  0.84620  0.37815  1.0000
  I   I314      1.0  0.66022  0.79963  0.94296  1.0000
  I   I315      1.0  0.42817  0.95040  0.00608  1.0000
  I   I316      1.0  0.88271  0.19341  0.54041  1.0000
  I   I317      1.0  0.71668  0.35624  0.91822  1.0000
  I   I318      1.0  0.83786  0.97271  0.48436  1.0000
  I   I319      1.0  0.48867  0.43552  0.62969  1.0000
  I   I320      1.0  0.84891  0.08785  0.65209  1.0000
  I   I321      1.0  0.70686  0.27368  0.17342  1.0000
  I   I322      1.0  0.51425  0.46298  0.01474  1.0000
  I   I323      1.0  0.71383  0.50659  0.58635  1.0000
  I   I324      1.0  0.82318  0.65152  0.40437  1.0000
  I   I325      1.0  0.89050  0.49191  0.23262  1.0000
  I   I326      1.0  0.46069  0.29895  0.11748  1.0000
  I   I327      1.0  0.01641  0.81470  0.77665  1.0000
  I   I328      1.0  0.17549  0.09825  0.36792  1.0000
  I   I329      1.0  0.59747  0.63927  0.83187  1.0000
  I   I330      1.0  0.86743  0.30738  0.91741  1.0000
  I   I331      1.0  0.36592  0.63639  0.85656  1.0000
  I   I332      1.0  0.63093  0.14138  0.43284  1.0000
  I   I333      1.0  0.82650  0.53948  0.01895  1.0000
  I   I334      1.0  0.59751  0.56302  0.55761  1.0000
  I   I335      1.0  0.30598  0.50030  0.51136  1.0000
  I   I336      1.0  0.14129  0.55052  0.14464  1.0000
  I   I337      1.0  0.58104  0.86053  0.49668  1.0000
  I   I338      1.0  0.08958  0.09903  0.10102  1.0000
  I   I339      1.0  0.43427  0.06726  0.20518  1.0000
  I   I340      1.0  0.04626  0.96296  0.92991  1.0000
  I   I341      1.0  0.82309  0.77277  0.75386  1.0000
  I   I342      1.0  0.44104  0.30572  0.63902  1.0000
  I   I343      1.0  0.84625  0.10861  0.31798  1.0000
  I   I344      1.0  0.41026  0.19919  0.08810  1.0000
  I   I345      1.0  0.31047  0.79045  0.71670  1.0000
  I   I346      1.0  0.69013  0.17506  0.49648  1.0000
  I   I347      1.0  0.44579  0.08683  0.90896  1.0000
  I   I348      1.0  0.11552  0.53912  0.37026  1.0000
  I   I349      1.0  0.63437  0.21694  0.70731  1.0000
  I   I350      1.0  0.24498  0.09145  0.47017  1.0000
  I   I351      1.0  0.09534  0.99874  0.36431  1.0000
  I   I352      1.0  0.15384  0.69464  0.20153  1.0000
  I   I353      1.0  0.08251  0.31151  0.75591  1.0000
  I   I354      1.0  0.43305  0.33816  0.23304  1.0000
  I   I355      1.0  0.38832  0.84735  0.26659  1.0000
  I   I356      1.0  0.06450  0.32997  0.10719  1.0000
  I   I357      1.0  0.25242  0.96933  0.96125  1.0000
  I   I358      1.0  0.00902  0.92720  0.35831  1.0000
  I   I359      1.0  0.61312  0.01996  0.50405  1.0000
  I   I360      1.0  0.22585  0.87412  0.29347  1.0000
  I   I361      1.0  0.98399  0.78672  0.36087  1.0000
  I   I362      1.0  0.59866  0.82033  0.92859  1.0000
  I   I363      1.0  0.49137  0.86696  0.16614  1.0000
  I   I364      1.0  0.84579  0.26193  0.56968  1.0000
  I   I365      1.0  0.75707  0.37882  0.95655  1.0000
  I   I366      1.0  0.78615  0.05135  0.55214  1.0000
  I   I367      1.0  0.53768  0.37288  0.55032  1.0000
  I   I368      1.0  0.84741  0.11656  0.51492  1.0000
  I   I369      1.0  0.71877  0.25005  0.30326  1.0000
  I   I370      1.0  0.46701  0.51343  0.93304  1.0000
  I   I371      1.0  0.76019  0.53975  0.39484  1.0000
  I   I372      1.0  0.83943  0.63446  0.26983  1.0000
  I   I373      1.0  0.01582  0.39430  0.23687  1.0000
  I   I374      1.0  0.57818  0.25034  0.04912  1.0000
  I   I375      1.0  0.00982  0.83323  0.66825  1.0000
  I   I376      1.0  0.59244  0.89163  0.22436  1.0000
  I   I377      1.0  0.52773  0.66673  0.00917  1.0000
  I   I378      1.0  0.84168  0.34533  0.11406  1.0000
  I   I379      1.0  0.31071  0.67782  0.89756  1.0000
  I   I380      1.0  0.84910  0.02667  0.90026  1.0000
  I   I381      1.0  0.77752  0.53966  0.95913  1.0000
  I   I382      1.0  0.51293  0.66256  0.64782  1.0000
  I   I383      1.0  0.31791  0.46602  0.39708  1.0000
  I   I384      1.0  0.10404  0.54510  0.00801  1.0000
