data_image0
_chemical_formula_structural       Ti96I384
_chemical_formula_sum              "Ti96 I384"
_cell_length_a       72.3059
_cell_length_b       72.2427
_cell_length_c       35.3684
_cell_angle_alpha    88.7757
_cell_angle_beta     88.7757
_cell_angle_gamma    62.1586

_space_group_name_H-M_alt    "P 1"
_space_group_IT_number       1

loop_
  _space_group_symop_operation_xyz
  'x, y, z'

loop_
  _atom_site_type_symbol
  _atom_site_label
  _atom_site_symmetry_multiplicity
  _atom_site_fract_x
  _atom_site_fract_y
  _atom_site_fract_z
  _atom_site_occupancy
  Ti  Ti1       1.0  0.48400  0.57797  0.46021  1.0000
  Ti  Ti2       1.0  0.15035  0.94221  0.12516  1.0000
  Ti  Ti3       1.0  0.35899  0.03931  0.72851  1.0000
  Ti  Ti4       1.0  0.96131  0.54883  0.01618  1.0000
  Ti  Ti5       1.0  0.59403  0.46120  0.24127  1.0000
  Ti  Ti6       1.0  0.61166  0.03940  0.31854  1.0000
  Ti  Ti7       1.0  0.57901  0.88460  0.37172  1.0000
  Ti  Ti8       1.0  0.16293  0.57699  0.05831  1.0000
  Ti  Ti9       1.0  0.43846  0.32137  0.36706  1.0000
  Ti  Ti10      1.0  0.55535  0.55876  0.74136  1.0000
  Ti  Ti11      1.0  0.25007  0.20527  0.62632  1.0000
  Ti  Ti12      1.0  0.91069  0.32376  0.06880  1.0000
  Ti  Ti13      1.0  0.69879  0.68988  0.30659  1.0000
  Ti  Ti14      1.0  0.97243  0.48894  0.01274  1.0000
  Ti  Ti15      1.0  0.69709  0.63558  0.55566  1.0000
  Ti  Ti16      1.0  0.36715  0.59448  0.79500  1.0000
  Ti  Ti17      1.0  0.19579  0.14899  0.94237  1.0000
  Ti  Ti18      1.0  0.27302  0.19194  0.12464  1.0000
  Ti  Ti19      1.0  0.15234  0.76713  0.36543  1.0000
  Ti  Ti20      1.0  0.25271  0.81595  0.44845  1.0000
  Ti  Ti21      1.0  0.17557  0.59114  0.13948  1.0000
  Ti  Ti22      1.0  0.99576  0.39131  0.25644  1.0000
  Ti  Ti23      1.0  0.22070  0.03898  0.35438  1.0000
  Ti  Ti24      1.0  0.84984  0.97414  0.43090  1.0000
  Ti  Ti25      1.0  0.47027  0.41285  0.31413  1.0000
  Ti  Ti26      1.0  0.64010  0.89982  0.62243  1.0000
  Ti  Ti27      1.0  0.78908  0.34415  0.21089  1.0000
  Ti  Ti28      1.0  0.26456  0.07390  0.04575  1.0000
  Ti  Ti29      1.0  0.21655  0.78462  0.03318  1.0000
  Ti  Ti30      1.0  0.28477  0.90245  0.75134  1.0000
  Ti  Ti31      1.0  0.35281  0.04186  0.40700  1.0000
  Ti  Ti32      1.0  0.37222  0.85616  0.00684  1.0000
  Ti  Ti33      1.0  0.28108  0.64282  0.51419  1.0000
  Ti  Ti34      1.0  0.74675  0.50336  0.06294  1.0000
  Ti  Ti35      1.0  0.07193  0.50928  0.29411  1.0000
  Ti  Ti36      1.0  0.87797  0.18756  0.88319  1.0000
  Ti  Ti37      1.0  0.16429  0.14682  0.79135  1.0000
  Ti  Ti38      1.0  0.64407  0.95903  0.85418  1.0000
  Ti  Ti39      1.0  0.51453  0.87730  0.97683  1.0000
  Ti  Ti40      1.0  0.46563  0.74771  0.81001  1.0000
  Ti  Ti41      1.0  0.56783  0.45129  0.78587  1.0000
  Ti  Ti42      1.0  0.94008  0.73306  0.64553  1.0000
  Ti  Ti43      1.0  0.99935  0.06364  0.36126  1.0000
  Ti  Ti44      1.0  0.56397  0.40514  0.84442  1.0000
  Ti  Ti45      1.0  0.14867  0.19140  0.48786  1.0000
  Ti  Ti46      1.0  0.40842  0.04968  0.68746  1.0000
  Ti  Ti47      1.0  0.97245  0.02520  0.86107  1.0000
  Ti  Ti48      1.0  0.08615  0.86822  0.32495  1.0000
  Ti  Ti49      1.0  0.93349  0.83515  0.76090  1.0000
  Ti  Ti50      1.0  0.82763  0.55187  0.18028  1.0000
  Ti  Ti51      1.0  0.20819  0.89773  0.12083  1.0000
  Ti  Ti52      1.0  0.73125  0.42179  0.61377  1.0000
  Ti  Ti53      1.0  0.75674  0.66716  0.07400  1.0000
  Ti  Ti54      1.0  0.60879  0.11485  0.13299  1.0000
  Ti  Ti55      1.0  0.61780  0.84468  0.29066  1.0000
  Ti  Ti56      1.0  0.21085  0.64848  0.89468  1.0000
  Ti  Ti57      1.0  0.40407  0.29215  0.32855  1.0000
  Ti  Ti58      1.0  0.37787  0.52467  0.44983  1.0000
  Ti  Ti59      1.0  0.78830  0.86771  0.33278  1.0000
  Ti  Ti60      1.0  0.89495  0.39181  0.02526  1.0000
  Ti  Ti61      1.0  0.65803  0.62397  0.50515  1.0000
  Ti  Ti62      1.0  0.73505  0.65688  0.35967  1.0000
  Ti  Ti63      1.0  0.03227  0.74606  0.17282  1.0000
  Ti  Ti64      1.0  0.25903  0.19785  0.19842  1.0000
  Ti  Ti65      1.0  0.98247  0.63449  0.36975  1.0000
  Ti  Ti66      1.0  0.76317  0.22209  0.44440  1.0000
  Ti  Ti67      1.0  0.91683  0.58402  0.30271  1.0000
  Ti  Ti68      1.0  0.12344  0.74744  0.33464  1.0000
  Ti  Ti69      1.0  0.67102  0.84874  0.67195  1.0000
  Ti  Ti70      1.0  0.87141  0.62398  0.18539  1.0000
  Ti  Ti71      1.0  0.23048  0.07105  0.41770  1.0000
  Ti  Ti72      1.0  0.01948  0.02834  0.82278  1.0000
  Ti  Ti73      1.0  0.82202  0.32395  0.15090  1.0000
  Ti  Ti74      1.0  0.50312  0.40591  0.42099  1.0000
  Ti  Ti75      1.0  0.44398  0.06883  0.06207  1.0000
  Ti  Ti76      1.0  0.23837  0.08597  0.10866  1.0000
  Ti  Ti77      1.0  0.09568  0.67321  0.47395  1.0000
  Ti  Ti78      1.0  0.27224  0.77508  0.99977  1.0000
  Ti  Ti79      1.0  0.80866  0.75722  0.29007  1.0000
  Ti  Ti80      1.0  0.97738  0.42744  0.68282  1.0000
  Ti  Ti81      1.0  0.35833  0.92373  0.98746  1.0000
  Ti  Ti82      1.0  0.96505  0.15357  0.48516  1.0000
  Ti  Ti83      1.0  0.02958  0.53588  0.40179  1.0000
  Ti  Ti84      1.0  0.85397  0.16655  0.97544  1.0000
  Ti  Ti85      1.0  0.11886  0.15606  0.79032  1.0000
  Ti  Ti86      1.0  0.72465  0.24277  0.53637  1.0000
  Ti  Ti87      1.0  0.09993  0.23718  0.56159  1.0000
  Ti  Ti88      1.0  0.71344  0.46007  0.51346  1.0000
  Ti  Ti89      1.0  0.39710  0.39281  0.61104  1.0000
  Ti  Ti90      1.0  0.99777  0.71389  0.69644  1.0000
  Ti  Ti91      1.0  0.27334  0.50228  0.39843  1.0000
  Ti  Ti92      1.0  0.52349  0.69230  0.47216  1.0000
  Ti  Ti93      1.0  0.04273  0.19183  0.89512  1.0000
  Ti  Ti94      1.0  0.04660  0.88121  0.27669  1.0000
  Ti  Ti95      1.0  0.35850  0.45098  0.08470  1.0000
  Ti  Ti96      1.0  0.87428  0.36316  0.35547  1.0000
  I   I1        1.0  0.99386  0.04572  0.89351  1.0000
  I   I2        1.0  0.15574  0.96492  0.07380  1.0000
  I   I3        1.0  0.92705  0.80393  0.74797  1.0000
  I   I4        1.0  0.73574  0.66727  0.01264  1.0000
  I   I5        1.0  0.64934  0.01355  0.31503  1.0000
  I   I6        1.0  0.57447  0.12163  0.16991  1.0000
  I   I7        1.0  0.14110  0.61345  0.02728  1.0000
  I   I8        1.0  0.22241  0.61854  0.84709  1.0000
  I   I9        1.0  0.37385  0.31603  0.37346  1.0000
  I   I10       1.0  0.54202  0.55176  0.80823  1.0000
  I   I11       1.0  0.22697  0.24484  0.65174  1.0000
  I   I12       1.0  0.57698  0.49112  0.28905  1.0000
  I   I13       1.0  0.70916  0.70319  0.39322  1.0000
  I   I14       1.0  0.00832  0.73467  0.21261  1.0000
  I   I15       1.0  0.69182  0.63890  0.62651  1.0000
  I   I16       1.0  0.54231  0.54189  0.69179  1.0000
  I   I17       1.0  0.76286  0.19662  0.39432  1.0000
  I   I18       1.0  0.30998  0.17934  0.07722  1.0000
  I   I19       1.0  0.21872  0.82852  0.48967  1.0000
  I   I20       1.0  0.23205  0.19338  0.57825  1.0000
  I   I21       1.0  0.19592  0.60426  0.09664  1.0000
  I   I22       1.0  0.23323  0.03052  0.28442  1.0000
  I   I23       1.0  0.24665  0.09099  0.44814  1.0000
  I   I24       1.0  0.88323  0.59946  0.34636  1.0000
  I   I25       1.0  0.43107  0.43914  0.31249  1.0000
  I   I26       1.0  0.47297  0.07409  0.09423  1.0000
  I   I27       1.0  0.75481  0.33979  0.23006  1.0000
  I   I28       1.0  0.30349  0.04440  0.04319  1.0000
  I   I29       1.0  0.18499  0.82162  0.02907  1.0000
  I   I30       1.0  0.32087  0.86780  0.73947  1.0000
  I   I31       1.0  0.01752  0.40211  0.66458  1.0000
  I   I32       1.0  0.39786  0.82929  0.95788  1.0000
  I   I33       1.0  0.77161  0.75851  0.30393  1.0000
  I   I34       1.0  0.03556  0.49311  0.39193  1.0000
  I   I35       1.0  0.91415  0.17789  0.85594  1.0000
  I   I36       1.0  0.73867  0.49806  0.13138  1.0000
  I   I37       1.0  0.13244  0.16234  0.85573  1.0000
  I   I38       1.0  0.51473  0.90458  0.92318  1.0000
  I   I39       1.0  0.14235  0.13980  0.72120  1.0000
  I   I40       1.0  0.59195  0.38487  0.89696  1.0000
  I   I41       1.0  0.98076  0.69554  0.64938  1.0000
  I   I42       1.0  0.48629  0.70931  0.78215  1.0000
  I   I43       1.0  0.41504  0.49841  0.48133  1.0000
  I   I44       1.0  0.52775  0.44374  0.83369  1.0000
  I   I45       1.0  0.11849  0.23434  0.49130  1.0000
  I   I46       1.0  0.33490  0.47920  0.13351  1.0000
  I   I47       1.0  0.94247  0.01530  0.85922  1.0000
  I   I48       1.0  0.03055  0.90026  0.21144  1.0000
  I   I49       1.0  0.92344  0.83887  0.83682  1.0000
  I   I50       1.0  0.20896  0.93195  0.14003  1.0000
  I   I51       1.0  0.17630  0.90505  0.17513  1.0000
  I   I52       1.0  0.95531  0.41962  0.73346  1.0000
  I   I53       1.0  0.76499  0.69755  0.07276  1.0000
  I   I54       1.0  0.64138  0.08615  0.16409  1.0000
  I   I55       1.0  0.61290  0.84236  0.38235  1.0000
  I   I56       1.0  0.14098  0.62864  0.15418  1.0000
  I   I57       1.0  0.38086  0.30426  0.26379  1.0000
  I   I58       1.0  0.54588  0.59512  0.70718  1.0000
  I   I59       1.0  0.77749  0.83890  0.35777  1.0000
  I   I60       1.0  0.87975  0.31514  0.09158  1.0000
  I   I61       1.0  0.74306  0.64847  0.42942  1.0000
  I   I62       1.0  0.70647  0.64311  0.35426  1.0000
  I   I63       1.0  0.01606  0.75687  0.10310  1.0000
  I   I64       1.0  0.37443  0.59645  0.86727  1.0000
  I   I65       1.0  0.00410  0.59332  0.38617  1.0000
  I   I66       1.0  0.80136  0.22041  0.44767  1.0000
  I   I67       1.0  0.18189  0.77631  0.34811  1.0000
  I   I68       1.0  0.26426  0.77722  0.42075  1.0000
  I   I69       1.0  0.63531  0.88246  0.69046  1.0000
  I   I70       1.0  0.87092  0.60224  0.24223  1.0000
  I   I71       1.0  0.22922  0.07916  0.33855  1.0000
  I   I72       1.0  0.05405  0.01018  0.86304  1.0000
  I   I73       1.0  0.84973  0.28747  0.16207  1.0000
  I   I74       1.0  0.66481  0.90555  0.56771  1.0000
  I   I75       1.0  0.69198  0.86857  0.69026  1.0000
  I   I76       1.0  0.11275  0.69360  0.44114  1.0000
  I   I77       1.0  0.11231  0.63705  0.43828  1.0000
  I   I78       1.0  0.47054  0.56081  0.51344  1.0000
  I   I79       1.0  0.27690  0.66610  0.57197  1.0000
  I   I80       1.0  0.35319  0.03946  0.33371  1.0000
  I   I81       1.0  0.32369  0.96050  0.99478  1.0000
  I   I82       1.0  0.00511  0.14742  0.51145  1.0000
  I   I83       1.0  0.06269  0.48098  0.27025  1.0000
  I   I84       1.0  0.86903  0.19312  0.80778  1.0000
  I   I85       1.0  0.15526  0.11530  0.81543  1.0000
  I   I86       1.0  0.74987  0.25495  0.40317  1.0000
  I   I87       1.0  0.48410  0.90022  0.01822  1.0000
  I   I88       1.0  0.44753  0.74664  0.87396  1.0000
  I   I89       1.0  0.60314  0.44735  0.77199  1.0000
  I   I90       1.0  0.02641  0.67618  0.71247  1.0000
  I   I91       1.0  0.27736  0.53631  0.39393  1.0000
  I   I92       1.0  0.55672  0.68712  0.51437  1.0000
  I   I93       1.0  0.54860  0.37956  0.82794  1.0000
  I   I94       1.0  0.07298  0.84158  0.27479  1.0000
  I   I95       1.0  0.41450  0.08615  0.69773  1.0000
  I   I96       1.0  0.85225  0.39244  0.31032  1.0000
  I   I97       1.0  0.37585  0.02977  0.79856  1.0000
  I   I98       1.0  0.50641  0.54565  0.41750  1.0000
  I   I99       1.0  0.22304  0.89907  0.04773  1.0000
  I   I100      1.0  0.93735  0.52720  0.04493  1.0000
  I   I101      1.0  0.76320  0.38208  0.62209  1.0000
  I   I102      1.0  0.60852  0.42159  0.26839  1.0000
  I   I103      1.0  0.57076  0.91515  0.43378  1.0000
  I   I104      1.0  0.58819  0.83312  0.30035  1.0000
  I   I105      1.0  0.45474  0.33870  0.31975  1.0000
  I   I106      1.0  0.92591  0.30105  0.14030  1.0000
  I   I107      1.0  0.59559  0.54587  0.74566  1.0000
  I   I108      1.0  0.87014  0.36823  0.03097  1.0000
  I   I109      1.0  0.68969  0.66625  0.50931  1.0000
  I   I110      1.0  0.76426  0.61662  0.36314  1.0000
  I   I111      1.0  0.06811  0.71281  0.17728  1.0000
  I   I112      1.0  0.26745  0.16095  0.15668  1.0000
  I   I113      1.0  0.98596  0.63746  0.29392  1.0000
  I   I114      1.0  0.22330  0.15212  0.97850  1.0000
  I   I115      1.0  0.94582  0.57837  0.34998  1.0000
  I   I116      1.0  0.87838  0.65728  0.16893  1.0000
  I   I117      1.0  0.16866  0.72981  0.39456  1.0000
  I   I118      1.0  0.99267  0.37609  0.19418  1.0000
  I   I119      1.0  0.89660  0.59696  0.14066  1.0000
  I   I120      1.0  0.99732  0.99884  0.81377  1.0000
  I   I121      1.0  0.84120  0.34650  0.17134  1.0000
  I   I122      1.0  0.46554  0.38966  0.26599  1.0000
  I   I123      1.0  0.44216  0.07487  0.98684  1.0000
  I   I124      1.0  0.26373  0.88600  0.71696  1.0000
  I   I125      1.0  0.26937  0.04528  0.11962  1.0000
  I   I126      1.0  0.26156  0.76043  0.05781  1.0000
  I   I127      1.0  0.26725  0.64366  0.45220  1.0000
  I   I128      1.0  0.96388  0.56367  0.08271  1.0000
  I   I129      1.0  0.38254  0.94091  0.99556  1.0000
  I   I130      1.0  0.83693  0.18131  0.89660  1.0000
  I   I131      1.0  0.92269  0.16766  0.49599  1.0000
  I   I132      1.0  0.10988  0.49539  0.30773  1.0000
  I   I133      1.0  0.54521  0.84865  0.01086  1.0000
  I   I134      1.0  0.63527  0.99207  0.81620  1.0000
  I   I135      1.0  0.71752  0.24051  0.46464  1.0000
  I   I136      1.0  0.98525  0.72786  0.76124  1.0000
  I   I137      1.0  0.71810  0.49542  0.47925  1.0000
  I   I138      1.0  0.39998  0.35615  0.58526  1.0000
  I   I139      1.0  0.31151  0.47301  0.40618  1.0000
  I   I140      1.0  0.50997  0.66624  0.48406  1.0000
  I   I141      1.0  0.04081  0.19305  0.96987  1.0000
  I   I142      1.0  0.04911  0.86719  0.36823  1.0000
  I   I143      1.0  0.44295  0.03601  0.64748  1.0000
  I   I144      1.0  0.84594  0.35561  0.38849  1.0000
  I   I145      1.0  0.51313  0.58191  0.48275  1.0000
  I   I146      1.0  0.11768  0.94071  0.11927  1.0000
  I   I147      1.0  0.37628  0.04079  0.65501  1.0000
  I   I148      1.0  0.74801  0.43590  0.55241  1.0000
  I   I149      1.0  0.61963  0.47207  0.21448  1.0000
  I   I150      1.0  0.60190  0.07859  0.34239  1.0000
  I   I151      1.0  0.64116  0.80495  0.26252  1.0000
  I   I152      1.0  0.18987  0.56168  0.00346  1.0000
  I   I153      1.0  0.43257  0.30692  0.29868  1.0000
  I   I154      1.0  0.98025  0.04427  0.39193  1.0000
  I   I155      1.0  0.26194  0.18179  0.68363  1.0000
  I   I156      1.0  0.91084  0.39642  0.95999  1.0000
  I   I157      1.0  0.65566  0.64015  0.57766  1.0000
  I   I158      1.0  0.03495  0.77981  0.17152  1.0000
  I   I159      1.0  0.62886  0.61170  0.51373  1.0000
  I   I160      1.0  0.24501  0.22024  0.26242  1.0000
  I   I161      1.0  0.17222  0.19084  0.92613  1.0000
  I   I162      1.0  0.25663  0.20613  0.05620  1.0000
  I   I163      1.0  0.10804  0.79035  0.34563  1.0000
  I   I164      1.0  0.14218  0.71088  0.32129  1.0000
  I   I165      1.0  0.14636  0.57428  0.12383  1.0000
  I   I166      1.0  0.98354  0.37883  0.31622  1.0000
  I   I167      1.0  0.17969  0.05395  0.33578  1.0000
  I   I168      1.0  0.84416  0.00331  0.47667  1.0000
  I   I169      1.0  0.49867  0.37406  0.44333  1.0000
  I   I170      1.0  0.50530  0.38880  0.34792  1.0000
  I   I171      1.0  0.79514  0.30526  0.17365  1.0000
  I   I172      1.0  0.23661  0.06482  0.02044  1.0000
  I   I173      1.0  0.22593  0.76312  0.96970  1.0000
  I   I174      1.0  0.28318  0.91408  0.81817  1.0000
  I   I175      1.0  0.33821  0.06048  0.47927  1.0000
  I   I176      1.0  0.35255  0.86623  0.94138  1.0000
  I   I177      1.0  0.83126  0.71859  0.31318  1.0000
  I   I178      1.0  0.96899  0.15552  0.41224  1.0000
  I   I179      1.0  0.03185  0.54361  0.31993  1.0000
  I   I180      1.0  0.88139  0.14071  0.02477  1.0000
  I   I181      1.0  0.11064  0.19491  0.76650  1.0000
  I   I182      1.0  0.68353  0.27131  0.55793  1.0000
  I   I183      1.0  0.12739  0.17408  0.45559  1.0000
  I   I184      1.0  0.70423  0.43030  0.55533  1.0000
  I   I185      1.0  0.38949  0.39849  0.68155  1.0000
  I   I186      1.0  0.94469  0.72064  0.57232  1.0000
  I   I187      1.0  0.49483  0.73063  0.45203  1.0000
  I   I188      1.0  0.60060  0.38998  0.79422  1.0000
  I   I189      1.0  0.18095  0.15848  0.50374  1.0000
  I   I190      1.0  0.36789  0.07322  0.72976  1.0000
  I   I191      1.0  0.80432  0.53632  0.16172  1.0000
  I   I192      1.0  0.05041  0.91186  0.31824  1.0000
  I   I193      1.0  0.20859  0.76035  0.07807  1.0000
  I   I194      1.0  0.81062  0.57613  0.23939  1.0000
  I   I195      1.0  0.31933  0.06750  0.70756  1.0000
  I   I196      1.0  0.92702  0.58057  0.01128  1.0000
  I   I197      1.0  0.34577  0.54000  0.50225  1.0000
  I   I198      1.0  0.58435  0.04506  0.26901  1.0000
  I   I199      1.0  0.60795  0.88353  0.30218  1.0000
  I   I200      1.0  0.23754  0.63545  0.95298  1.0000
  I   I201      1.0  0.46912  0.28797  0.39988  1.0000
  I   I202      1.0  0.78230  0.87464  0.26116  1.0000
  I   I203      1.0  0.66819  0.86059  0.59628  1.0000
  I   I204      1.0  0.85423  0.41605  0.02423  1.0000
  I   I205      1.0  0.68144  0.72517  0.27120  1.0000
  I   I206      1.0  0.95470  0.46607  0.05069  1.0000
  I   I207      1.0  0.73695  0.61710  0.54770  1.0000
  I   I208      1.0  0.40149  0.58595  0.76436  1.0000
  I   I209      1.0  0.16565  0.14459  0.98082  1.0000
  I   I210      1.0  0.82563  0.75529  0.21946  1.0000
  I   I211      1.0  0.93116  0.54330  0.29505  1.0000
  I   I212      1.0  0.28839  0.80054  0.48810  1.0000
  I   I213      1.0  0.64491  0.82928  0.67991  1.0000
  I   I214      1.0  0.03468  0.37376  0.27056  1.0000
  I   I215      1.0  0.23287  0.99913  0.37233  1.0000
  I   I216      1.0  0.83634  0.99877  0.36894  1.0000
  I   I217      1.0  0.46934  0.44244  0.39004  1.0000
  I   I218      1.0  0.41210  0.08785  0.10744  1.0000
  I   I219      1.0  0.78089  0.38399  0.21467  1.0000
  I   I220      1.0  0.05800  0.67651  0.46020  1.0000
  I   I221      1.0  0.23688  0.81343  0.03440  1.0000
  I   I222      1.0  0.22695  0.12567  0.09024  1.0000
  I   I223      1.0  0.34577  0.00853  0.41711  1.0000
  I   I224      1.0  0.39453  0.88160  0.01357  1.0000
  I   I225      1.0  0.32266  0.62253  0.50721  1.0000
  I   I226      1.0  0.95975  0.19427  0.51661  1.0000
  I   I227      1.0  0.07455  0.53119  0.22834  1.0000
  I   I228      1.0  0.81814  0.17607  0.00285  1.0000
  I   I229      1.0  0.17696  0.17317  0.77177  1.0000
  I   I230      1.0  0.67635  0.96166  0.88046  1.0000
  I   I231      1.0  0.49259  0.86866  0.93013  1.0000
  I   I232      1.0  0.99822  0.50583  0.01929  1.0000
  I   I233      1.0  0.54635  0.49088  0.79962  1.0000
  I   I234      1.0  0.96133  0.75677  0.65816  1.0000
  I   I235      1.0  0.03729  0.05130  0.39098  1.0000
  I   I236      1.0  0.06690  0.15384  0.88508  1.0000
  I   I237      1.0  0.26362  0.49403  0.33720  1.0000
  I   I238      1.0  0.37869  0.42819  0.14640  1.0000
  I   I239      1.0  0.90773  0.34304  0.31227  1.0000
  I   I240      1.0  0.10328  0.86895  0.39424  1.0000
  I   I241      1.0  0.46691  0.60471  0.40250  1.0000
  I   I242      1.0  0.14753  0.96655  0.18334  1.0000
  I   I243      1.0  0.36069  0.00245  0.71217  1.0000
  I   I244      1.0  0.69282  0.48815  0.57529  1.0000
  I   I245      1.0  0.72104  0.68237  0.11198  1.0000
  I   I246      1.0  0.58773  0.03735  0.37561  1.0000
  I   I247      1.0  0.55757  0.86828  0.40284  1.0000
  I   I248      1.0  0.20218  0.54795  0.10796  1.0000
  I   I249      1.0  0.41753  0.35578  0.39641  1.0000
  I   I250      1.0  0.75993  0.90418  0.35696  1.0000
  I   I251      1.0  0.28820  0.19635  0.57821  1.0000
  I   I252      1.0  0.92506  0.30351  0.00867  1.0000
  I   I253      1.0  0.66337  0.69646  0.34244  1.0000
  I   I254      1.0  0.00665  0.45081  0.04333  1.0000
  I   I255      1.0  0.63994  0.65690  0.46266  1.0000
  I   I256      1.0  0.00012  0.65858  0.38395  1.0000
  I   I257      1.0  0.22197  0.13539  0.87665  1.0000
  I   I258      1.0  0.22361  0.21398  0.16489  1.0000
  I   I259      1.0  0.91922  0.61244  0.25279  1.0000
  I   I260      1.0  0.13760  0.79001  0.43015  1.0000
  I   I261      1.0  0.13981  0.56092  0.02834  1.0000
  I   I262      1.0  0.97868  0.42981  0.25050  1.0000
  I   I263      1.0  0.26170  0.03358  0.38828  1.0000
  I   I264      1.0  0.83332  0.94877  0.42634  1.0000
  I   I265      1.0  0.48462  0.43322  0.27239  1.0000
  I   I266      1.0  0.61372  0.89769  0.57533  1.0000
  I   I267      1.0  0.82375  0.32427  0.06921  1.0000
  I   I268      1.0  0.27196  0.09210  0.98715  1.0000
  I   I269      1.0  0.26233  0.78415  0.92279  1.0000
  I   I270      1.0  0.21596  0.06857  0.12001  1.0000
  I   I271      1.0  0.38743  0.04311  0.42319  1.0000
  I   I272      1.0  0.34259  0.89905  0.01681  1.0000
  I   I273      1.0  0.26481  0.61814  0.54031  1.0000
  I   I274      1.0  0.77520  0.51724  0.04478  1.0000
  I   I275      1.0  0.06924  0.52125  0.38170  1.0000
  I   I276      1.0  0.86039  0.19918  0.97017  1.0000
  I   I277      1.0  0.96841  0.12051  0.51784  1.0000
  I   I278      1.0  0.60830  0.96503  0.88606  1.0000
  I   I279      1.0  0.16485  0.19345  0.42030  1.0000
  I   I280      1.0  0.71046  0.40664  0.64863  1.0000
  I   I281      1.0  0.55750  0.44048  0.72045  1.0000
  I   I282      1.0  0.92449  0.70801  0.65973  1.0000
  I   I283      1.0  0.00730  0.06465  0.29127  1.0000
  I   I284      1.0  0.00150  0.19833  0.90686  1.0000
  I   I285      1.0  0.08853  0.23017  0.62298  1.0000
  I   I286      1.0  0.38916  0.45343  0.04649  1.0000
  I   I287      1.0  0.02707  0.01508  0.75369  1.0000
  I   I288      1.0  0.12458  0.83156  0.33248  1.0000
  I   I289      1.0  0.91251  0.86277  0.71682  1.0000
  I   I290      1.0  0.86188  0.52810  0.21376  1.0000
  I   I291      1.0  0.16899  0.90685  0.07895  1.0000
  I   I292      1.0  0.74036  0.43881  0.66744  1.0000
  I   I293      1.0  0.78280  0.62647  0.08309  1.0000
  I   I294      1.0  0.61561  0.14371  0.17073  1.0000
  I   I295      1.0  0.60470  0.85943  0.21915  1.0000
  I   I296      1.0  0.19086  0.68985  0.90009  1.0000
  I   I297      1.0  0.42059  0.29683  0.40014  1.0000
  I   I298      1.0  0.35796  0.50727  0.41179  1.0000
  I   I299      1.0  0.37020  0.55834  0.80059  1.0000
  I   I300      1.0  0.90291  0.42028  0.04869  1.0000
  I   I301      1.0  0.67754  0.59500  0.44811  1.0000
  I   I302      1.0  0.70897  0.65600  0.25909  1.0000
  I   I303      1.0  0.49208  0.76438  0.80202  1.0000
  I   I304      1.0  0.30638  0.17301  0.18940  1.0000
  I   I305      1.0  0.33859  0.62538  0.75814  1.0000
  I   I306      1.0  0.71906  0.21258  0.56049  1.0000
  I   I307      1.0  0.13968  0.77304  0.28895  1.0000
  I   I308      1.0  0.26279  0.83769  0.40220  1.0000
  I   I309      1.0  0.19663  0.57518  0.19619  1.0000
  I   I310      1.0  0.98001  0.10123  0.37707  1.0000
  I   I311      1.0  0.20215  0.05696  0.43219  1.0000
  I   I312      1.0  0.98237  0.00751  0.92771  1.0000
  I   I313      1.0  0.78429  0.36199  0.13451  1.0000
  I   I314      1.0  0.49868  0.42119  0.48852  1.0000
  I   I315      1.0  0.46667  0.02979  0.07095  1.0000
  I   I316      1.0  0.24113  0.09844  0.17941  1.0000
  I   I317      1.0  0.27764  0.09655  0.09295  1.0000
  I   I318      1.0  0.28674  0.73897  0.95455  1.0000
  I   I319      1.0  0.77889  0.79985  0.27972  1.0000
  I   I320      1.0  0.97947  0.56017  0.96221  1.0000
  I   I321      1.0  0.35757  0.83841  0.05138  1.0000
  I   I322      1.0  0.71415  0.51355  0.02243  1.0000
  I   I323      1.0  0.03893  0.53144  0.47076  1.0000
  I   I324      1.0  0.88163  0.14346  0.91765  1.0000
  I   I325      1.0  0.08161  0.15413  0.76532  1.0000
  I   I326      1.0  0.76226  0.20628  0.51839  1.0000
  I   I327      1.0  0.07256  0.22570  0.53202  1.0000
  I   I328      1.0  0.43516  0.77482  0.76579  1.0000
  I   I329      1.0  0.36522  0.41912  0.57080  1.0000
  I   I330      1.0  0.03241  0.71825  0.68952  1.0000
  I   I331      1.0  0.08962  0.27390  0.57904  1.0000
  I   I332      1.0  0.37980  0.55226  0.40346  1.0000
  I   I333      1.0  0.58199  0.43319  0.85741  1.0000
  I   I334      1.0  0.08631  0.87886  0.25406  1.0000
  I   I335      1.0  0.42669  0.03105  0.74350  1.0000
  I   I336      1.0  0.87351  0.39146  0.40067  1.0000
  I   I337      1.0  0.97385  0.82457  0.74808  1.0000
  I   I338      1.0  0.83467  0.57387  0.12916  1.0000
  I   I339      1.0  0.24264  0.86662  0.13753  1.0000
  I   I340      1.0  0.98247  0.46109  0.69319  1.0000
  I   I341      1.0  0.56966  0.46303  0.19084  1.0000
  I   I342      1.0  0.60186  0.12834  0.05899  1.0000
  I   I343      1.0  0.55400  0.91704  0.33127  1.0000
  I   I344      1.0  0.18255  0.63993  0.92849  1.0000
  I   I345      1.0  0.41589  0.25095  0.32838  1.0000
  I   I346      1.0  0.83464  0.63691  0.15049  1.0000
  I   I347      1.0  0.82848  0.85366  0.33726  1.0000
  I   I348      1.0  0.91562  0.35508  0.08571  1.0000
  I   I349      1.0  0.69241  0.59618  0.54903  1.0000
  I   I350      1.0  0.74017  0.68071  0.29972  1.0000
  I   I351      1.0  0.97059  0.48752  0.94126  1.0000
  I   I352      1.0  0.26777  0.22876  0.14992  1.0000
  I   I353      1.0  0.94296  0.65822  0.37933  1.0000
  I   I354      1.0  0.75041  0.26169  0.51721  1.0000
  I   I355      1.0  0.09936  0.74792  0.27800  1.0000
  I   I356      1.0  0.10362  0.74311  0.39097  1.0000
  I   I357      1.0  0.61955  0.93616  0.64638  1.0000
  I   I358      1.0  0.88961  0.95723  0.42023  1.0000
  I   I359      1.0  0.19524  0.10659  0.39182  1.0000
  I   I360      1.0  0.95607  0.05718  0.81573  1.0000
  I   I361      1.0  0.81840  0.32063  0.25407  1.0000
  I   I362      1.0  0.53754  0.40968  0.40482  1.0000
  I   I363      1.0  0.69423  0.81322  0.70065  1.0000
  I   I364      1.0  0.28508  0.93301  0.71326  1.0000
  I   I365      1.0  0.11463  0.65566  0.53216  1.0000
  I   I366      1.0  0.30414  0.78647  0.99614  1.0000
  I   I367      1.0  0.82547  0.76541  0.34941  1.0000
  I   I368      1.0  0.96286  0.42736  0.61664  1.0000
  I   I369      1.0  0.35805  0.91366  0.91371  1.0000
  I   I370      1.0  0.76869  0.46493  0.04367  1.0000
  I   I371      1.0  0.98527  0.55344  0.40406  1.0000
  I   I372      1.0  0.85241  0.22898  0.87934  1.0000
  I   I373      1.0  0.20420  0.11074  0.76711  1.0000
  I   I374      1.0  0.65112  0.93332  0.79681  1.0000
  I   I375      1.0  0.14132  0.19813  0.56733  1.0000
  I   I376      1.0  0.72157  0.45219  0.44179  1.0000
  I   I377      1.0  0.42841  0.40186  0.59560  1.0000
  I   I378      1.0  0.90468  0.76740  0.62313  1.0000
  I   I379      1.0  0.25819  0.48151  0.43616  1.0000
  I   I380      1.0  0.54268  0.67495  0.41065  1.0000
  I   I381      1.0  0.06026  0.21076  0.85557  1.0000
  I   I382      1.0  0.00832  0.88808  0.29441  1.0000
  I   I383      1.0  0.33132  0.44825  0.04611  1.0000
  I   I384      1.0  0.01509  0.06681  0.82172  1.0000
