data_image0
_chemical_formula_structural       Ti96I384
_chemical_formula_sum              "Ti96 I384"
_cell_length_a       55.5448
_cell_length_b       55.7931
_cell_length_c       26.9848
_cell_angle_alpha    88.7757
_cell_angle_beta     88.7757
_cell_angle_gamma    62.1586

_space_group_name_H-M_alt    "P 1"
_space_group_IT_number       1

loop_
  _space_group_symop_operation_xyz
  'x, y, z'

loop_
  _atom_site_type_symbol
  _atom_site_label
  _atom_site_symmetry_multiplicity
  _atom_site_fract_x
  _atom_site_fract_y
  _atom_site_fract_z
  _atom_site_occupancy
  Ti  Ti1       1.0  0.86674  0.58155  0.11114  1.0000
  Ti  Ti2       1.0  0.90410  0.99263  0.09682  1.0000
  Ti  Ti3       1.0  0.77389  0.70397  0.28567  1.0000
  Ti  Ti4       1.0  0.32452  0.15636  0.61125  1.0000
  Ti  Ti5       1.0  0.92988  0.28962  0.12877  1.0000
  Ti  Ti6       1.0  0.04313  0.32473  0.73197  1.0000
  Ti  Ti7       1.0  0.94199  0.91722  0.39112  1.0000
  Ti  Ti8       1.0  0.95949  0.09608  0.65382  1.0000
  Ti  Ti9       1.0  0.84179  0.91066  0.72201  1.0000
  Ti  Ti10      1.0  0.39240  0.89170  0.11568  1.0000
  Ti  Ti11      1.0  0.16315  0.55636  0.91321  1.0000
  Ti  Ti12      1.0  0.84630  0.76110  0.66398  1.0000
  Ti  Ti13      1.0  0.37041  0.33424  0.43109  1.0000
  Ti  Ti14      1.0  0.30733  0.24099  0.30504  1.0000
  Ti  Ti15      1.0  0.28050  0.07396  0.98119  1.0000
  Ti  Ti16      1.0  0.23560  0.61606  0.18798  1.0000
  Ti  Ti17      1.0  0.22233  0.74129  0.05284  1.0000
  Ti  Ti18      1.0  0.18384  0.39284  0.00096  1.0000
  Ti  Ti19      1.0  0.64164  0.69147  0.49915  1.0000
  Ti  Ti20      1.0  0.76940  0.78739  0.94960  1.0000
  Ti  Ti21      1.0  0.32614  0.46487  0.17528  1.0000
  Ti  Ti22      1.0  0.50547  0.01386  0.51279  1.0000
  Ti  Ti23      1.0  0.63585  0.96733  0.76972  1.0000
  Ti  Ti24      1.0  0.48262  0.88482  0.56189  1.0000
  Ti  Ti25      1.0  0.30862  0.23613  0.95015  1.0000
  Ti  Ti26      1.0  0.21950  0.33277  0.74602  1.0000
  Ti  Ti27      1.0  0.28633  0.51424  0.65118  1.0000
  Ti  Ti28      1.0  0.52079  0.61511  0.65123  1.0000
  Ti  Ti29      1.0  0.73101  0.39889  0.59807  1.0000
  Ti  Ti30      1.0  0.82555  0.44890  0.69953  1.0000
  Ti  Ti31      1.0  0.62017  0.44628  0.07519  1.0000
  Ti  Ti32      1.0  0.78259  0.25985  0.55446  1.0000
  Ti  Ti33      1.0  0.94940  0.38958  0.96348  1.0000
  Ti  Ti34      1.0  0.04165  0.75711  0.13964  1.0000
  Ti  Ti35      1.0  0.66704  0.62454  0.87282  1.0000
  Ti  Ti36      1.0  0.02646  0.53876  0.91420  1.0000
  Ti  Ti37      1.0  0.63676  0.29300  0.12262  1.0000
  Ti  Ti38      1.0  0.48664  0.36899  0.31935  1.0000
  Ti  Ti39      1.0  0.42070  0.52168  0.12738  1.0000
  Ti  Ti40      1.0  0.18125  0.98915  0.57044  1.0000
  Ti  Ti41      1.0  0.64054  0.30905  0.73561  1.0000
  Ti  Ti42      1.0  0.43032  0.77524  0.83660  1.0000
  Ti  Ti43      1.0  0.80779  0.20919  0.79439  1.0000
  Ti  Ti44      1.0  0.89261  0.45076  0.36878  1.0000
  Ti  Ti45      1.0  0.02260  0.46988  0.35319  1.0000
  Ti  Ti46      1.0  0.61291  0.12712  0.42244  1.0000
  Ti  Ti47      1.0  0.51940  0.07773  0.17096  1.0000
  Ti  Ti48      1.0  0.43594  0.31137  0.86774  1.0000
  Ti  Ti49      1.0  0.83065  0.65377  0.18861  1.0000
  Ti  Ti50      1.0  0.82753  0.01416  0.06960  1.0000
  Ti  Ti51      1.0  0.88366  0.05680  0.18931  1.0000
  Ti  Ti52      1.0  0.34283  0.09209  0.57512  1.0000
  Ti  Ti53      1.0  0.93082  0.21822  0.12352  1.0000
  Ti  Ti54      1.0  0.05177  0.27029  0.77608  1.0000
  Ti  Ti55      1.0  0.98646  0.91840  0.45984  1.0000
  Ti  Ti56      1.0  0.94864  0.03762  0.67089  1.0000
  Ti  Ti57      1.0  0.82474  0.95189  0.80346  1.0000
  Ti  Ti58      1.0  0.32153  0.83219  0.11384  1.0000
  Ti  Ti59      1.0  0.45448  0.86263  0.21747  1.0000
  Ti  Ti60      1.0  0.88221  0.75268  0.55508  1.0000
  Ti  Ti61      1.0  0.26854  0.07840  0.12807  1.0000
  Ti  Ti62      1.0  0.43708  0.29106  0.48401  1.0000
  Ti  Ti63      1.0  0.37127  0.19107  0.23082  1.0000
  Ti  Ti64      1.0  0.22895  0.33360  0.04416  1.0000
  Ti  Ti65      1.0  0.25843  0.65455  0.08392  1.0000
  Ti  Ti66      1.0  0.20962  0.81129  0.60713  1.0000
  Ti  Ti67      1.0  0.61344  0.71761  0.60591  1.0000
  Ti  Ti68      1.0  0.82323  0.78104  0.98246  1.0000
  Ti  Ti69      1.0  0.36355  0.40810  0.07865  1.0000
  Ti  Ti70      1.0  0.49179  0.95240  0.53377  1.0000
  Ti  Ti71      1.0  0.68188  0.93326  0.66144  1.0000
  Ti  Ti72      1.0  0.59055  0.02655  0.87329  1.0000
  Ti  Ti73      1.0  0.34295  0.47100  0.61786  1.0000
  Ti  Ti74      1.0  0.27194  0.24400  0.80666  1.0000
  Ti  Ti75      1.0  0.15234  0.37796  0.67649  1.0000
  Ti  Ti76      1.0  0.90301  0.43390  0.69718  1.0000
  Ti  Ti77      1.0  0.50906  0.55904  0.72409  1.0000
  Ti  Ti78      1.0  0.79188  0.38805  0.68821  1.0000
  Ti  Ti79      1.0  0.87019  0.43023  0.96452  1.0000
  Ti  Ti80      1.0  0.70083  0.42922  0.13698  1.0000
  Ti  Ti81      1.0  0.82968  0.26141  0.43561  1.0000
  Ti  Ti82      1.0  0.03271  0.68746  0.10165  1.0000
  Ti  Ti83      1.0  0.71051  0.59988  0.94871  1.0000
  Ti  Ti84      1.0  0.98297  0.63203  0.89776  1.0000
  Ti  Ti85      1.0  0.68602  0.28811  0.16730  1.0000
  Ti  Ti86      1.0  0.47335  0.32869  0.20538  1.0000
  Ti  Ti87      1.0  0.41673  0.59930  0.17949  1.0000
  Ti  Ti88      1.0  0.25179  0.93378  0.56963  1.0000
  Ti  Ti89      1.0  0.62068  0.25865  0.65751  1.0000
  Ti  Ti90      1.0  0.40555  0.73428  0.89766  1.0000
  Ti  Ti91      1.0  0.03794  0.52683  0.38637  1.0000
  Ti  Ti92      1.0  0.77629  0.23456  0.91666  1.0000
  Ti  Ti93      1.0  0.97078  0.42588  0.37663  1.0000
  Ti  Ti94      1.0  0.47172  0.33906  0.93080  1.0000
  Ti  Ti95      1.0  0.63163  0.09737  0.53104  1.0000
  Ti  Ti96      1.0  0.47916  0.11502  0.06044  1.0000
  I   I1        1.0  0.80392  0.05608  0.00671  1.0000
  I   I2        1.0  0.93714  0.01230  0.07340  1.0000
  I   I3        1.0  0.81545  0.61514  0.16094  1.0000
  I   I4        1.0  0.89132  0.25672  0.07407  1.0000
  I   I5        1.0  0.09204  0.23607  0.82533  1.0000
  I   I6        1.0  0.01017  0.30317  0.69998  1.0000
  I   I7        1.0  0.96762  0.99341  0.72167  1.0000
  I   I8        1.0  0.92365  0.08540  0.60712  1.0000
  I   I9        1.0  0.80662  0.90940  0.80327  1.0000
  I   I10       1.0  0.42023  0.86992  0.03286  1.0000
  I   I11       1.0  0.11857  0.58220  0.86398  1.0000
  I   I12       1.0  0.37064  0.79551  0.15201  1.0000
  I   I13       1.0  0.39848  0.29008  0.38346  1.0000
  I   I14       1.0  0.38830  0.19148  0.13924  1.0000
  I   I15       1.0  0.30525  0.02047  0.98879  1.0000
  I   I16       1.0  0.29510  0.63389  0.15517  1.0000
  I   I17       1.0  0.22404  0.77404  0.67547  1.0000
  I   I18       1.0  0.25528  0.29517  0.97341  1.0000
  I   I19       1.0  0.87407  0.74077  0.96121  1.0000
  I   I20       1.0  0.36670  0.41598  0.19123  1.0000
  I   I21       1.0  0.41364  0.36971  0.06469  1.0000
  I   I22       1.0  0.66480  0.96371  0.58293  1.0000
  I   I23       1.0  0.65474  0.98719  0.69975  1.0000
  I   I24       1.0  0.52407  0.90845  0.58748  1.0000
  I   I25       1.0  0.27473  0.21125  0.89663  1.0000
  I   I26       1.0  0.17234  0.32289  0.71496  1.0000
  I   I27       1.0  0.33232  0.52173  0.65207  1.0000
  I   I28       1.0  0.50673  0.61102  0.74750  1.0000
  I   I29       1.0  0.79360  0.35606  0.60874  1.0000
  I   I30       1.0  0.86355  0.41749  0.77741  1.0000
  I   I31       1.0  0.57115  0.46611  0.12105  1.0000
  I   I32       1.0  0.76789  0.29682  0.48336  1.0000
  I   I33       1.0  0.98961  0.39061  0.91323  1.0000
  I   I34       1.0  0.66599  0.66749  0.91007  1.0000
  I   I35       1.0  0.02157  0.58618  0.85612  1.0000
  I   I36       1.0  0.08087  0.65303  0.13983  1.0000
  I   I37       1.0  0.59689  0.27921  0.10788  1.0000
  I   I38       1.0  0.36858  0.61814  0.22764  1.0000
  I   I39       1.0  0.70157  0.31648  0.22750  1.0000
  I   I40       1.0  0.59534  0.31985  0.67623  1.0000
  I   I41       1.0  0.44420  0.70704  0.95642  1.0000
  I   I42       1.0  0.18631  0.00173  0.65722  1.0000
  I   I43       1.0  0.85379  0.20154  0.75423  1.0000
  I   I44       1.0  0.93213  0.43616  0.30606  1.0000
  I   I45       1.0  0.06223  0.43188  0.31048  1.0000
  I   I46       1.0  0.57542  0.14225  0.35911  1.0000
  I   I47       1.0  0.54215  0.02413  0.18885  1.0000
  I   I48       1.0  0.45636  0.29495  0.97145  1.0000
  I   I49       1.0  0.85985  0.55859  0.03774  1.0000
  I   I50       1.0  0.94805  0.93717  0.09111  1.0000
  I   I51       1.0  0.89429  0.08692  0.13457  1.0000
  I   I52       1.0  0.37680  0.06770  0.49681  1.0000
  I   I53       1.0  0.92524  0.25228  0.20518  1.0000
  I   I54       1.0  0.07178  0.24986  0.67913  1.0000
  I   I55       1.0  0.92729  0.87766  0.39843  1.0000
  I   I56       1.0  0.94397  0.07396  0.74565  1.0000
  I   I57       1.0  0.87275  0.93159  0.72392  1.0000
  I   I58       1.0  0.42978  0.90438  0.13939  1.0000
  I   I59       1.0  0.45794  0.82485  0.16362  1.0000
  I   I60       1.0  0.80093  0.81033  0.67269  1.0000
  I   I61       1.0  0.42372  0.25374  0.52076  1.0000
  I   I62       1.0  0.46100  0.29770  0.55769  1.0000
  I   I63       1.0  0.32597  0.19791  0.36290  1.0000
  I   I64       1.0  0.19370  0.60699  0.18095  1.0000
  I   I65       1.0  0.20573  0.69806  0.05663  1.0000
  I   I66       1.0  0.21560  0.78904  0.52289  1.0000
  I   I67       1.0  0.56303  0.75856  0.62668  1.0000
  I   I68       1.0  0.72915  0.78820  0.00296  1.0000
  I   I69       1.0  0.28736  0.47660  0.10557  1.0000
  I   I70       1.0  0.48343  0.98868  0.45706  1.0000
  I   I71       1.0  0.69717  0.92348  0.77732  1.0000
  I   I72       1.0  0.62542  0.02809  0.93444  1.0000
  I   I73       1.0  0.25204  0.54724  0.58128  1.0000
  I   I74       1.0  0.25035  0.27849  0.71829  1.0000
  I   I75       1.0  0.14958  0.35240  0.59509  1.0000
  I   I76       1.0  0.49481  0.59743  0.59395  1.0000
  I   I77       1.0  0.46511  0.57822  0.78601  1.0000
  I   I78       1.0  0.78957  0.43327  0.75861  1.0000
  I   I79       1.0  0.85515  0.45782  0.88555  1.0000
  I   I80       1.0  0.69861  0.46453  0.20266  1.0000
  I   I81       1.0  0.81690  0.20708  0.56173  1.0000
  I   I82       1.0  0.02575  0.78288  0.22370  1.0000
  I   I83       1.0  0.61832  0.62920  0.86290  1.0000
  I   I84       1.0  0.98300  0.66201  0.82786  1.0000
  I   I85       1.0  0.65320  0.26580  0.21578  1.0000
  I   I86       1.0  0.44389  0.30333  0.22105  1.0000
  I   I87       1.0  0.36722  0.55019  0.12810  1.0000
  I   I88       1.0  0.12947  0.01681  0.56437  1.0000
  I   I89       1.0  0.62983  0.26973  0.78430  1.0000
  I   I90       1.0  0.44662  0.74276  0.75936  1.0000
  I   I91       1.0  0.01854  0.57366  0.34741  1.0000
  I   I92       1.0  0.82435  0.18121  0.87962  1.0000
  I   I93       1.0  0.01087  0.43229  0.43863  1.0000
  I   I94       1.0  0.50025  0.31453  0.84418  1.0000
  I   I95       1.0  0.66762  0.04725  0.53530  1.0000
  I   I96       1.0  0.44073  0.10333  0.02591  1.0000
  I   I97       1.0  0.79408  0.70229  0.37506  1.0000
  I   I98       1.0  0.90512  0.58576  0.06475  1.0000
  I   I99       1.0  0.90457  0.99979  0.20962  1.0000
  I   I100      1.0  0.37730  0.11481  0.59522  1.0000
  I   I101      1.0  0.27231  0.19630  0.60877  1.0000
  I   I102      1.0  0.95545  0.27571  0.04354  1.0000
  I   I103      1.0  0.02934  0.87775  0.51229  1.0000
  I   I104      1.0  0.89374  0.95563  0.42719  1.0000
  I   I105      1.0  0.77865  0.98327  0.84993  1.0000
  I   I106      1.0  0.82621  0.72743  0.68205  1.0000
  I   I107      1.0  0.39357  0.88529  0.21686  1.0000
  I   I108      1.0  0.87131  0.79323  0.61930  1.0000
  I   I109      1.0  0.29805  0.04017  0.18325  1.0000
  I   I110      1.0  0.38187  0.34290  0.52083  1.0000
  I   I111      1.0  0.31827  0.27037  0.36430  1.0000
  I   I112      1.0  0.18805  0.38327  0.10409  1.0000
  I   I113      1.0  0.24464  0.61477  0.07748  1.0000
  I   I114      1.0  0.17788  0.78445  0.07065  1.0000
  I   I115      1.0  0.59457  0.70153  0.46839  1.0000
  I   I116      1.0  0.63279  0.72665  0.69043  1.0000
  I   I117      1.0  0.81269  0.79083  0.87932  1.0000
  I   I118      1.0  0.54574  0.95190  0.52268  1.0000
  I   I119      1.0  0.52468  0.02195  0.42586  1.0000
  I   I120      1.0  0.64760  0.98812  0.84361  1.0000
  I   I121      1.0  0.27198  0.53887  0.73182  1.0000
  I   I122      1.0  0.31044  0.25530  0.85303  1.0000
  I   I123      1.0  0.21478  0.35148  0.65035  1.0000
  I   I124      1.0  0.85445  0.48034  0.73516  1.0000
  I   I125      1.0  0.49061  0.53598  0.66489  1.0000
  I   I126      1.0  0.76095  0.42910  0.60944  1.0000
  I   I127      1.0  0.90309  0.40449  0.03997  1.0000
  I   I128      1.0  0.75433  0.39531  0.13046  1.0000
  I   I129      1.0  0.84405  0.25202  0.53406  1.0000
  I   I130      1.0  0.04364  0.50526  0.84311  1.0000
  I   I131      1.0  0.05564  0.72378  0.04908  1.0000
  I   I132      1.0  0.72221  0.61696  0.02889  1.0000
  I   I133      1.0  0.43269  0.53792  0.21855  1.0000
  I   I134      1.0  0.45849  0.37831  0.17163  1.0000
  I   I135      1.0  0.51880  0.38436  0.27133  1.0000
  I   I136      1.0  0.48003  0.77220  0.85530  1.0000
  I   I137      1.0  0.19971  0.93064  0.61588  1.0000
  I   I138      1.0  0.61674  0.35105  0.80204  1.0000
  I   I139      1.0  0.06323  0.46806  0.42872  1.0000
  I   I140      1.0  0.79358  0.26327  0.97146  1.0000
  I   I141      1.0  0.92497  0.47598  0.40472  1.0000
  I   I142      1.0  0.43169  0.32450  0.76919  1.0000
  I   I143      1.0  0.59717  0.15581  0.51136  1.0000
  I   I144      1.0  0.47533  0.14798  0.99299  1.0000
  I   I145      1.0  0.77764  0.68764  0.17768  1.0000
  I   I146      1.0  0.88808  0.99657  0.00461  1.0000
  I   I147      1.0  0.75598  0.75048  0.24648  1.0000
  I   I148      1.0  0.29387  0.10405  0.59060  1.0000
  I   I149      1.0  0.93111  0.18299  0.05547  1.0000
  I   I150      1.0  0.08755  0.30567  0.78208  1.0000
  I   I151      1.0  0.99796  0.88349  0.38901  1.0000
  I   I152      1.0  0.98628  0.10773  0.57877  1.0000
  I   I153      1.0  0.79394  0.96170  0.70708  1.0000
  I   I154      1.0  0.28320  0.88325  0.12831  1.0000
  I   I155      1.0  0.16980  0.57350  0.99807  1.0000
  I   I156      1.0  0.89503  0.72155  0.64888  1.0000
  I   I157      1.0  0.23486  0.11849  0.18498  1.0000
  I   I158      1.0  0.31381  0.20489  0.22727  1.0000
  I   I159      1.0  0.24845  0.11880  0.04265  1.0000
  I   I160      1.0  0.16101  0.42307  0.91956  1.0000
  I   I161      1.0  0.28605  0.63888  0.00180  1.0000
  I   I162      1.0  0.13177  0.40765  0.02901  1.0000
  I   I163      1.0  0.62693  0.66808  0.64005  1.0000
  I   I164      1.0  0.81126  0.73260  0.94013  1.0000
  I   I165      1.0  0.29886  0.48423  0.25713  1.0000
  I   I166      1.0  0.47828  0.99493  0.59480  1.0000
  I   I167      1.0  0.61868  0.95233  0.68468  1.0000
  I   I168      1.0  0.44479  0.87473  0.53882  1.0000
  I   I169      1.0  0.33289  0.26183  0.98361  1.0000
  I   I170      1.0  0.23084  0.29148  0.83778  1.0000
  I   I171      1.0  0.32861  0.46246  0.70680  1.0000
  I   I172      1.0  0.93219  0.38301  0.67252  1.0000
  I   I173      1.0  0.72882  0.39856  0.50247  1.0000
  I   I174      1.0  0.83709  0.39560  0.67309  1.0000
  I   I175      1.0  0.63082  0.47793  0.14296  1.0000
  I   I176      1.0  0.80336  0.29867  0.36454  1.0000
  I   I177      1.0  0.93401  0.36482  0.89690  1.0000
  I   I178      1.0  0.02633  0.71760  0.17762  1.0000
  I   I179      1.0  0.74740  0.59958  0.88806  1.0000
  I   I180      1.0  0.06834  0.53092  0.96588  1.0000
  I   I181      1.0  0.62721  0.32987  0.20063  1.0000
  I   I182      1.0  0.45179  0.34879  0.29949  1.0000
  I   I183      1.0  0.41996  0.50204  0.04084  1.0000
  I   I184      1.0  0.19452  0.02718  0.53179  1.0000
  I   I185      1.0  0.68678  0.30132  0.76653  1.0000
  I   I186      1.0  0.42124  0.69977  0.82974  1.0000
  I   I187      1.0  0.72571  0.27017  0.89701  1.0000
  I   I188      1.0  0.85608  0.49905  0.32751  1.0000
  I   I189      1.0  0.98524  0.45593  0.31127  1.0000
  I   I190      1.0  0.65852  0.08733  0.40786  1.0000
  I   I191      1.0  0.50137  0.09193  0.26094  1.0000
  I   I192      1.0  0.38835  0.31603  0.90376  1.0000
  I   I193      1.0  0.88222  0.54105  0.16949  1.0000
  I   I194      1.0  0.87418  0.96760  0.13101  1.0000
  I   I195      1.0  0.84869  0.69030  0.19194  1.0000
  I   I196      1.0  0.33917  0.19490  0.59797  1.0000
  I   I197      1.0  0.90228  0.34096  0.12079  1.0000
  I   I198      1.0  0.06192  0.32558  0.64436  1.0000
  I   I199      1.0  0.93703  0.92528  0.30123  1.0000
  I   I200      1.0  0.90897  0.03476  0.62287  1.0000
  I   I201      1.0  0.87658  0.86006  0.76028  1.0000
  I   I202      1.0  0.36228  0.86024  0.12540  1.0000
  I   I203      1.0  0.16025  0.51612  0.95743  1.0000
  I   I204      1.0  0.85569  0.72436  0.54077  1.0000
  I   I205      1.0  0.33120  0.32659  0.45770  1.0000
  I   I206      1.0  0.25298  0.26281  0.29724  1.0000
  I   I207      1.0  0.24796  0.08179  0.91350  1.0000
  I   I208      1.0  0.27839  0.56963  0.18016  1.0000
  I   I209      1.0  0.22698  0.73956  0.95359  1.0000
  I   I210      1.0  0.24375  0.37067  0.98144  1.0000
  I   I211      1.0  0.65577  0.70783  0.41197  1.0000
  I   I212      1.0  0.73494  0.80987  0.87676  1.0000
  I   I213      1.0  0.35062  0.41039  0.98615  1.0000
  I   I214      1.0  0.53382  0.01833  0.57837  1.0000
  I   I215      1.0  0.61742  0.94313  0.84604  1.0000
  I   I216      1.0  0.52550  0.84007  0.53829  1.0000
  I   I217      1.0  0.29946  0.21920  0.03416  1.0000
  I   I218      1.0  0.25579  0.34379  0.78898  1.0000
  I   I219      1.0  0.39185  0.46111  0.59452  1.0000
  I   I220      1.0  0.48123  0.66523  0.66257  1.0000
  I   I221      1.0  0.71956  0.36016  0.60225  1.0000
  I   I222      1.0  0.78015  0.48177  0.64861  1.0000
  I   I223      1.0  0.63284  0.39383  0.07874  1.0000
  I   I224      1.0  0.74107  0.25210  0.57762  1.0000
  I   I225      1.0  0.98104  0.34223  0.00469  1.0000
  I   I226      1.0  0.03497  0.79734  0.08346  1.0000
  I   I227      1.0  0.67300  0.64488  0.78445  1.0000
  I   I228      1.0  0.99220  0.59073  0.97043  1.0000
  I   I229      1.0  0.67031  0.26166  0.06044  1.0000
  I   I230      1.0  0.51116  0.33119  0.38389  1.0000
  I   I231      1.0  0.44646  0.60184  0.25436  1.0000
  I   I232      1.0  0.21555  0.95446  0.49748  1.0000
  I   I233      1.0  0.62464  0.25569  0.56209  1.0000
  I   I234      1.0  0.37142  0.72239  0.94547  1.0000
  I   I235      1.0  0.77777  0.21781  0.71381  1.0000
  I   I236      1.0  0.88147  0.41471  0.32737  1.0000
  I   I237      1.0  0.99478  0.51952  0.41076  1.0000
  I   I238      1.0  0.63081  0.16301  0.39108  1.0000
  I   I239      1.0  0.56310  0.08480  0.17433  1.0000
  I   I240      1.0  0.46257  0.26171  0.85560  1.0000
  I   I241      1.0  0.83612  0.63843  0.09130  1.0000
  I   I242      1.0  0.85530  0.04346  0.10802  1.0000
  I   I243      1.0  0.73305  0.69265  0.29400  1.0000
  I   I244      1.0  0.33014  0.14424  0.50628  1.0000
  I   I245      1.0  0.98189  0.20915  0.12751  1.0000
  I   I246      1.0  0.00866  0.37239  0.74258  1.0000
  I   I247      1.0  0.96979  0.96157  0.39095  1.0000
  I   I248      1.0  0.00963  0.08065  0.69838  1.0000
  I   I249      1.0  0.83978  0.90129  0.62518  1.0000
  I   I250      1.0  0.34660  0.93355  0.08715  1.0000
  I   I251      1.0  0.20679  0.54621  0.85393  1.0000
  I   I252      1.0  0.86062  0.76301  0.75741  1.0000
  I   I253      1.0  0.34645  0.38020  0.38028  1.0000
  I   I254      1.0  0.41912  0.18653  0.25936  1.0000
  I   I255      1.0  0.24550  0.05265  0.07893  1.0000
  I   I256      1.0  0.23285  0.62364  0.28386  1.0000
  I   I257      1.0  0.26100  0.75776  0.05849  1.0000
  I   I258      1.0  0.20852  0.30088  0.07692  1.0000
  I   I259      1.0  0.67605  0.69377  0.57536  1.0000
  I   I260      1.0  0.79538  0.76288  0.04943  1.0000
  I   I261      1.0  0.35586  0.48498  0.22283  1.0000
  I   I262      1.0  0.46416  0.06290  0.51201  1.0000
  I   I263      1.0  0.58524  0.01847  0.77064  1.0000
  I   I264      1.0  0.48087  0.87815  0.65937  1.0000
  I   I265      1.0  0.35247  0.19346  0.92361  1.0000
  I   I266      1.0  0.18257  0.38330  0.75752  1.0000
  I   I267      1.0  0.26452  0.48082  0.62820  1.0000
  I   I268      1.0  0.55694  0.55931  0.66715  1.0000
  I   I269      1.0  0.68246  0.43677  0.61957  1.0000
  I   I270      1.0  0.86011  0.44092  0.62084  1.0000
  I   I271      1.0  0.60822  0.46888  0.99215  1.0000
  I   I272      1.0  0.78601  0.29277  0.61779  1.0000
  I   I273      1.0  0.91552  0.44454  0.95755  1.0000
  I   I274      1.0  0.09631  0.73539  0.15405  1.0000
  I   I275      1.0  0.69192  0.57091  0.86325  1.0000
  I   I276      1.0  0.98925  0.52766  0.95272  1.0000
  I   I277      1.0  0.60527  0.33825  0.07017  1.0000
  I   I278      1.0  0.46779  0.41156  0.37351  1.0000
  I   I279      1.0  0.42929  0.56628  0.09527  1.0000
  I   I280      1.0  0.28036  0.88373  0.54601  1.0000
  I   I281      1.0  0.57013  0.26417  0.64922  1.0000
  I   I282      1.0  0.42336  0.81746  0.77605  1.0000
  I   I283      1.0  0.79379  0.25788  0.82518  1.0000
  I   I284      1.0  0.86472  0.45769  0.45604  1.0000
  I   I285      1.0  0.01843  0.50505  0.27744  1.0000
  I   I286      1.0  0.67037  0.11300  0.53146  1.0000
  I   I287      1.0  0.48394  0.14017  0.14225  1.0000
  I   I288      1.0  0.42201  0.36447  0.89544  1.0000
  I   I289      1.0  0.88742  0.60741  0.18803  1.0000
  I   I290      1.0  0.80280  0.98542  0.04474  1.0000
  I   I291      1.0  0.91131  0.05394  0.27176  1.0000
  I   I292      1.0  0.33326  0.13760  0.70032  1.0000
  I   I293      1.0  0.91686  0.19322  0.19587  1.0000
  I   I294      1.0  0.02226  0.24313  0.79267  1.0000
  I   I295      1.0  0.99793  0.94658  0.52607  1.0000
  I   I296      1.0  0.98689  0.03310  0.60285  1.0000
  I   I297      1.0  0.83620  0.99168  0.78207  1.0000
  I   I298      1.0  0.30569  0.80451  0.17246  1.0000
  I   I299      1.0  0.45075  0.85093  0.30917  1.0000
  I   I300      1.0  0.92838  0.73227  0.50312  1.0000
  I   I301      1.0  0.31489  0.08758  0.94807  1.0000
  I   I302      1.0  0.42859  0.33639  0.43353  1.0000
  I   I303      1.0  0.33936  0.25249  0.23175  1.0000
  I   I304      1.0  0.18805  0.34917  0.96386  1.0000
  I   I305      1.0  0.27300  0.69609  0.09295  1.0000
  I   I306      1.0  0.24161  0.83218  0.61940  1.0000
  I   I307      1.0  0.66242  0.64136  0.47363  1.0000
  I   I308      1.0  0.76705  0.83214  0.98624  1.0000
  I   I309      1.0  0.33573  0.38377  0.10560  1.0000
  I   I310      1.0  0.44776  0.94406  0.55822  1.0000
  I   I311      1.0  0.73476  0.91753  0.65766  1.0000
  I   I312      1.0  0.57514  0.99689  0.92379  1.0000
  I   I313      1.0  0.31551  0.49344  0.53484  1.0000
  I   I314      1.0  0.25012  0.21461  0.77293  1.0000
  I   I315      1.0  0.13302  0.42415  0.63523  1.0000
  I   I316      1.0  0.92848  0.42800  0.78314  1.0000
  I   I317      1.0  0.53930  0.51794  0.78413  1.0000
  I   I318      1.0  0.82116  0.35143  0.74876  1.0000
  I   I319      1.0  0.84068  0.40583  0.96744  1.0000
  I   I320      1.0  0.69364  0.39714  0.19612  1.0000
  I   I321      1.0  0.87909  0.25009  0.41249  1.0000
  I   I322      1.0  0.01337  0.65149  0.13205  1.0000
  I   I323      1.0  0.73216  0.55268  0.98250  1.0000
  I   I324      1.0  0.98246  0.65913  0.97745  1.0000
  I   I325      1.0  0.72909  0.24386  0.15421  1.0000
  I   I326      1.0  0.51937  0.31968  0.25677  1.0000
  I   I327      1.0  0.40890  0.63934  0.12318  1.0000
  I   I328      1.0  0.26411  0.92265  0.66270  1.0000
  I   I329      1.0  0.66210  0.27268  0.65256  1.0000
  I   I330      1.0  0.39953  0.78390  0.93633  1.0000
  I   I331      1.0  0.08703  0.50755  0.32846  1.0000
  I   I332      1.0  0.75962  0.20859  0.84331  1.0000
  I   I333      1.0  0.00555  0.37628  0.36432  1.0000
  I   I334      1.0  0.50995  0.31623  0.99392  1.0000
  I   I335      1.0  0.60045  0.08762  0.45787  1.0000
  I   I336      1.0  0.46960  0.08035  0.14300  1.0000
  I   I337      1.0  0.81645  0.65170  0.28268  1.0000
  I   I338      1.0  0.80192  0.02841  0.15193  1.0000
  I   I339      1.0  0.83336  0.08359  0.22489  1.0000
  I   I340      1.0  0.36024  0.05011  0.63006  1.0000
  I   I341      1.0  0.96857  0.28813  0.18481  1.0000
  I   I342      1.0  0.01518  0.30873  0.83246  1.0000
  I   I343      1.0  0.94539  0.91180  0.50072  1.0000
  I   I344      1.0  0.91747  0.14525  0.67289  1.0000
  I   I345      1.0  0.86221  0.91673  0.85654  1.0000
  I   I346      1.0  0.33933  0.80951  0.02923  1.0000
  I   I347      1.0  0.50028  0.86499  0.19316  1.0000
  I   I348      1.0  0.85075  0.78311  0.48558  1.0000
  I   I349      1.0  0.31490  0.07484  0.07611  1.0000
  I   I350      1.0  0.48162  0.25901  0.42635  1.0000
  I   I351      1.0  0.38065  0.14283  0.26123  1.0000
  I   I352      1.0  0.27236  0.31831  0.09887  1.0000
  I   I353      1.0  0.21414  0.67332  0.18100  1.0000
  I   I354      1.0  0.15966  0.84915  0.61987  1.0000
  I   I355      1.0  0.61573  0.74703  0.52988  1.0000
  I   I356      1.0  0.83557  0.81093  0.03576  1.0000
  I   I357      1.0  0.36791  0.45577  0.09335  1.0000
  I   I358      1.0  0.50109  0.91659  0.45540  1.0000
  I   I359      1.0  0.69338  0.88754  0.62074  1.0000
  I   I360      1.0  0.55268  0.07710  0.88738  1.0000
  I   I361      1.0  0.35447  0.41922  0.57810  1.0000
  I   I362      1.0  0.31829  0.21173  0.76610  1.0000
  I   I363      1.0  0.10413  0.40024  0.72029  1.0000
  I   I364      1.0  0.92676  0.45695  0.64845  1.0000
  I   I365      1.0  0.56705  0.61976  0.64281  1.0000
  I   I366      1.0  0.73781  0.40680  0.71243  1.0000
  I   I367      1.0  0.83533  0.47640  0.02158  1.0000
  I   I368      1.0  0.68126  0.42445  0.05553  1.0000
  I   I369      1.0  0.82045  0.22557  0.39237  1.0000
  I   I370      1.0  0.98690  0.72298  0.05842  1.0000
  I   I371      1.0  0.65487  0.61767  0.97681  1.0000
  I   I372      1.0  0.93108  0.64483  0.91364  1.0000
  I   I373      1.0  0.68718  0.31791  0.08656  1.0000
  I   I374      1.0  0.50258  0.29336  0.13447  1.0000
  I   I375      1.0  0.43594  0.47637  0.17129  1.0000
  I   I376      1.0  0.28246  0.95479  0.54417  1.0000
  I   I377      1.0  0.64120  0.20999  0.71039  1.0000
  I   I378      1.0  0.37776  0.77332  0.82219  1.0000
  I   I379      1.0  0.06417  0.53288  0.46885  1.0000
  I   I380      1.0  0.77153  0.21138  0.00014  1.0000
  I   I381      1.0  0.93682  0.41085  0.43370  1.0000
  I   I382      1.0  0.47881  0.38204  0.92410  1.0000
  I   I383      1.0  0.59944  0.11050  0.60594  1.0000
  I   I384      1.0  0.53054  0.07354  0.04223  1.0000
