data_image0
_chemical_formula_structural       Ti96I384
_chemical_formula_sum              "Ti96 I384"
_cell_length_a       66.0093
_cell_length_b       65.8598
_cell_length_c       32.1831
_cell_angle_alpha    88.7757
_cell_angle_beta     88.7757
_cell_angle_gamma    62.1586

_space_group_name_H-M_alt    "P 1"
_space_group_IT_number       1

loop_
  _space_group_symop_operation_xyz
  'x, y, z'

loop_
  _atom_site_type_symbol
  _atom_site_label
  _atom_site_symmetry_multiplicity
  _atom_site_fract_x
  _atom_site_fract_y
  _atom_site_fract_z
  _atom_site_occupancy
  Ti  Ti1       1.0  0.57510  0.81282  0.50601  1.0000
  Ti  Ti2       1.0  0.50992  0.00957  0.21089  1.0000
  Ti  Ti3       1.0  0.72253  0.83505  0.35284  1.0000
  Ti  Ti4       1.0  0.08543  0.01710  0.86630  1.0000
  Ti  Ti5       1.0  0.76090  0.72883  0.66264  1.0000
  Ti  Ti6       1.0  0.39280  0.36692  0.57100  1.0000
  Ti  Ti7       1.0  0.81657  0.18348  0.31421  1.0000
  Ti  Ti8       1.0  0.47265  0.16635  0.98520  1.0000
  Ti  Ti9       1.0  0.28906  0.87089  0.76594  1.0000
  Ti  Ti10      1.0  0.66177  0.98163  0.85530  1.0000
  Ti  Ti11      1.0  0.92595  0.44753  0.57697  1.0000
  Ti  Ti12      1.0  0.09029  0.61750  0.47312  1.0000
  Ti  Ti13      1.0  0.15237  0.10538  0.55853  1.0000
  Ti  Ti14      1.0  0.13706  0.97695  0.44319  1.0000
  Ti  Ti15      1.0  0.58725  0.17485  0.76498  1.0000
  Ti  Ti16      1.0  0.73092  0.92364  0.84421  1.0000
  Ti  Ti17      1.0  0.31551  0.08698  0.56999  1.0000
  Ti  Ti18      1.0  0.13607  0.73640  0.25550  1.0000
  Ti  Ti19      1.0  0.45236  0.74032  0.24637  1.0000
  Ti  Ti20      1.0  0.38796  0.89961  0.56217  1.0000
  Ti  Ti21      1.0  0.28567  0.99908  0.96381  1.0000
  Ti  Ti22      1.0  0.67032  0.47480  0.20298  1.0000
  Ti  Ti23      1.0  0.54346  0.03538  0.60719  1.0000
  Ti  Ti24      1.0  0.07385  0.86837  0.41057  1.0000
  Ti  Ti25      1.0  0.69453  0.71663  0.93122  1.0000
  Ti  Ti26      1.0  0.40454  0.94795  0.15028  1.0000
  Ti  Ti27      1.0  0.89954  0.88744  0.28391  1.0000
  Ti  Ti28      1.0  0.71657  0.39668  0.84661  1.0000
  Ti  Ti29      1.0  0.86188  0.97904  0.61306  1.0000
  Ti  Ti30      1.0  0.92969  0.20572  0.65752  1.0000
  Ti  Ti31      1.0  0.89551  0.18958  0.84277  1.0000
  Ti  Ti32      1.0  0.70178  0.29543  0.27594  1.0000
  Ti  Ti33      1.0  0.27552  0.84127  0.11913  1.0000
  Ti  Ti34      1.0  0.49161  0.52924  0.93613  1.0000
  Ti  Ti35      1.0  0.67957  0.55947  0.49718  1.0000
  Ti  Ti36      1.0  0.78178  0.73662  0.16290  1.0000
  Ti  Ti37      1.0  0.97178  0.50239  0.29808  1.0000
  Ti  Ti38      1.0  0.54591  0.28340  0.01834  1.0000
  Ti  Ti39      1.0  0.96923  0.78405  0.97251  1.0000
  Ti  Ti40      1.0  0.18516  0.17687  0.11502  1.0000
  Ti  Ti41      1.0  0.59717  0.64562  0.77871  1.0000
  Ti  Ti42      1.0  0.83888  0.42188  0.04886  1.0000
  Ti  Ti43      1.0  0.67803  0.20521  0.43365  1.0000
  Ti  Ti44      1.0  0.83186  0.52928  0.73384  1.0000
  Ti  Ti45      1.0  0.30091  0.61799  0.14875  1.0000
  Ti  Ti46      1.0  0.35094  0.52918  0.37914  1.0000
  Ti  Ti47      1.0  0.10688  0.54064  0.10193  1.0000
  Ti  Ti48      1.0  0.58403  0.52772  0.57847  1.0000
  Ti  Ti49      1.0  0.68815  0.69232  0.66318  1.0000
  Ti  Ti50      1.0  0.10752  0.11838  0.93138  1.0000
  Ti  Ti51      1.0  0.53216  0.03049  0.13161  1.0000
  Ti  Ti52      1.0  0.08512  0.97048  0.79811  1.0000
  Ti  Ti53      1.0  0.38391  0.59000  0.80840  1.0000
  Ti  Ti54      1.0  0.41224  0.31150  0.66972  1.0000
  Ti  Ti55      1.0  0.85516  0.13424  0.24522  1.0000
  Ti  Ti56      1.0  0.45555  0.25222  0.95139  1.0000
  Ti  Ti57      1.0  0.24970  0.90418  0.84366  1.0000
  Ti  Ti58      1.0  0.65587  0.15364  0.36393  1.0000
  Ti  Ti59      1.0  0.35998  0.15893  0.77583  1.0000
  Ti  Ti60      1.0  0.14854  0.56726  0.40497  1.0000
  Ti  Ti61      1.0  0.64332  0.17724  0.70324  1.0000
  Ti  Ti62      1.0  0.18322  0.13253  0.65240  1.0000
  Ti  Ti63      1.0  0.08174  0.98878  0.53549  1.0000
  Ti  Ti64      1.0  0.12361  0.71122  0.15384  1.0000
  Ti  Ti65      1.0  0.07572  0.30753  0.69199  1.0000
  Ti  Ti66      1.0  0.46423  0.35073  0.20534  1.0000
  Ti  Ti67      1.0  0.43234  0.71695  0.30284  1.0000
  Ti  Ti68      1.0  0.09792  0.31337  0.12447  1.0000
  Ti  Ti69      1.0  0.32809  0.99289  0.85418  1.0000
  Ti  Ti70      1.0  0.64496  0.54481  0.23473  1.0000
  Ti  Ti71      1.0  0.49331  0.05834  0.51025  1.0000
  Ti  Ti72      1.0  0.23283  0.94421  0.27894  1.0000
  Ti  Ti73      1.0  0.92299  0.91611  0.36521  1.0000
  Ti  Ti74      1.0  0.64519  0.75629  0.92061  1.0000
  Ti  Ti75      1.0  0.40136  0.90971  0.05842  1.0000
  Ti  Ti76      1.0  0.94810  0.21163  0.52059  1.0000
  Ti  Ti77      1.0  0.70230  0.45060  0.76360  1.0000
  Ti  Ti78      1.0  0.84090  0.96383  0.73176  1.0000
  Ti  Ti79      1.0  0.55686  0.41236  0.37652  1.0000
  Ti  Ti80      1.0  0.81920  0.11488  0.61814  1.0000
  Ti  Ti81      1.0  0.69190  0.30041  0.17454  1.0000
  Ti  Ti82      1.0  0.52490  0.45250  0.95296  1.0000
  Ti  Ti83      1.0  0.71542  0.50780  0.54204  1.0000
  Ti  Ti84      1.0  0.79419  0.69628  0.07431  1.0000
  Ti  Ti85      1.0  0.00322  0.45388  0.35708  1.0000
  Ti  Ti86      1.0  0.49721  0.31286  0.10892  1.0000
  Ti  Ti87      1.0  0.03103  0.72757  0.94422  1.0000
  Ti  Ti88      1.0  0.64021  0.83805  0.37338  1.0000
  Ti  Ti89      1.0  0.55783  0.69799  0.86351  1.0000
  Ti  Ti90      1.0  0.82660  0.37748  0.97689  1.0000
  Ti  Ti91      1.0  0.26978  0.64714  0.07362  1.0000
  Ti  Ti92      1.0  0.89330  0.92469  0.04198  1.0000
  Ti  Ti93      1.0  0.79329  0.59181  0.81044  1.0000
  Ti  Ti94      1.0  0.56728  0.49598  0.62836  1.0000
  Ti  Ti95      1.0  0.35935  0.45829  0.38267  1.0000
  Ti  Ti96      1.0  0.17828  0.50010  0.05867  1.0000
  I   I1        1.0  0.19389  0.49053  0.97985  1.0000
  I   I2        1.0  0.54989  0.98327  0.17137  1.0000
  I   I3        1.0  0.68886  0.72967  0.71010  1.0000
  I   I4        1.0  0.34719  0.61870  0.84259  1.0000
  I   I5        1.0  0.34845  0.39800  0.54945  1.0000
  I   I6        1.0  0.43504  0.31923  0.72225  1.0000
  I   I7        1.0  0.45138  0.14848  0.02249  1.0000
  I   I8        1.0  0.43649  0.26876  0.02087  1.0000
  I   I9        1.0  0.29892  0.82542  0.76666  1.0000
  I   I10       1.0  0.70490  0.94533  0.91136  1.0000
  I   I11       1.0  0.90616  0.42727  0.54416  1.0000
  I   I12       1.0  0.74073  0.75324  0.72777  1.0000
  I   I13       1.0  0.16606  0.14451  0.72350  1.0000
  I   I14       1.0  0.09343  0.01080  0.46541  1.0000
  I   I15       1.0  0.55211  0.19979  0.81396  1.0000
  I   I16       1.0  0.76691  0.91659  0.89902  1.0000
  I   I17       1.0  0.43494  0.39540  0.18158  1.0000
  I   I18       1.0  0.09282  0.74787  0.19039  1.0000
  I   I19       1.0  0.40781  0.86851  0.61745  1.0000
  I   I20       1.0  0.92033  0.45482  0.65376  1.0000
  I   I21       1.0  0.25707  0.03439  0.00868  1.0000
  I   I22       1.0  0.45644  0.09519  0.49778  1.0000
  I   I23       1.0  0.52656  0.01560  0.55213  1.0000
  I   I24       1.0  0.67971  0.55173  0.20173  1.0000
  I   I25       1.0  0.61355  0.79334  0.96095  1.0000
  I   I26       1.0  0.39192  0.95494  0.06629  1.0000
  I   I27       1.0  0.89012  0.88798  0.20522  1.0000
  I   I28       1.0  0.70578  0.40795  0.75161  1.0000
  I   I29       1.0  0.81457  0.00692  0.75908  1.0000
  I   I30       1.0  0.97740  0.18864  0.46260  1.0000
  I   I31       1.0  0.77606  0.12856  0.63852  1.0000
  I   I32       1.0  0.65503  0.29938  0.15862  1.0000
  I   I33       1.0  0.57935  0.37303  0.41949  1.0000
  I   I34       1.0  0.74105  0.49059  0.47874  1.0000
  I   I35       1.0  0.76407  0.78439  0.16313  1.0000
  I   I36       1.0  0.45076  0.54487  0.95670  1.0000
  I   I37       1.0  0.98922  0.44619  0.42710  1.0000
  I   I38       1.0  0.99831  0.74195  0.01534  1.0000
  I   I39       1.0  0.02363  0.41148  0.34811  1.0000
  I   I40       1.0  0.51380  0.72290  0.85025  1.0000
  I   I41       1.0  0.79079  0.37033  0.96598  1.0000
  I   I42       1.0  0.21723  0.17950  0.07929  1.0000
  I   I43       1.0  0.65552  0.11597  0.38720  1.0000
  I   I44       1.0  0.80880  0.60069  0.87676  1.0000
  I   I45       1.0  0.25627  0.69046  0.07805  1.0000
  I   I46       1.0  0.32553  0.45020  0.39785  1.0000
  I   I47       1.0  0.07786  0.53760  0.15393  1.0000
  I   I48       1.0  0.53942  0.53679  0.59412  1.0000
  I   I49       1.0  0.71977  0.65891  0.70115  1.0000
  I   I50       1.0  0.47353  0.04723  0.25623  1.0000
  I   I51       1.0  0.53364  0.01892  0.27060  1.0000
  I   I52       1.0  0.04773  0.00948  0.81880  1.0000
  I   I53       1.0  0.40450  0.61609  0.79656  1.0000
  I   I54       1.0  0.42816  0.26937  0.68282  1.0000
  I   I55       1.0  0.81107  0.21830  0.26941  1.0000
  I   I56       1.0  0.51216  0.13418  0.94709  1.0000
  I   I57       1.0  0.27970  0.91339  0.76100  1.0000
  I   I58       1.0  0.62185  0.00987  0.82514  1.0000
  I   I59       1.0  0.34663  0.13991  0.83407  1.0000
  I   I60       1.0  0.10117  0.60499  0.39819  1.0000
  I   I61       1.0  0.14298  0.13906  0.62595  1.0000
  I   I62       1.0  0.19660  0.09683  0.58689  1.0000
  I   I63       1.0  0.12506  0.94405  0.44338  1.0000
  I   I64       1.0  0.76063  0.93340  0.80307  1.0000
  I   I65       1.0  0.08204  0.30783  0.61455  1.0000
  I   I66       1.0  0.47846  0.35882  0.27295  1.0000
  I   I67       1.0  0.47240  0.72402  0.33421  1.0000
  I   I68       1.0  0.34674  0.93188  0.58503  1.0000
  I   I69       1.0  0.29383  0.03137  0.82983  1.0000
  I   I70       1.0  0.66289  0.50372  0.28710  1.0000
  I   I71       1.0  0.53600  0.02304  0.67848  1.0000
  I   I72       1.0  0.26292  0.94363  0.32765  1.0000
  I   I73       1.0  0.94162  0.93272  0.30806  1.0000
  I   I74       1.0  0.37281  0.92882  0.14004  1.0000
  I   I75       1.0  0.42175  0.86647  0.09167  1.0000
  I   I76       1.0  0.73227  0.35721  0.81568  1.0000
  I   I77       1.0  0.72186  0.45313  0.69686  1.0000
  I   I78       1.0  0.83698  0.92569  0.70950  1.0000
  I   I79       1.0  0.26529  0.83427  0.19772  1.0000
  I   I80       1.0  0.85313  0.21510  0.86959  1.0000
  I   I81       1.0  0.70963  0.25736  0.23259  1.0000
  I   I82       1.0  0.52732  0.41761  0.90622  1.0000
  I   I83       1.0  0.65285  0.58684  0.44386  1.0000
  I   I84       1.0  0.75058  0.73207  0.12845  1.0000
  I   I85       1.0  0.97126  0.45675  0.29433  1.0000
  I   I86       1.0  0.50648  0.32143  0.02860  1.0000
  I   I87       1.0  0.98461  0.80284  0.02045  1.0000
  I   I88       1.0  0.16690  0.20362  0.18264  1.0000
  I   I89       1.0  0.60708  0.65475  0.86164  1.0000
  I   I90       1.0  0.86200  0.35005  0.92750  1.0000
  I   I91       1.0  0.29280  0.64047  0.99786  1.0000
  I   I92       1.0  0.87102  0.91719  0.98558  1.0000
  I   I93       1.0  0.87284  0.51958  0.70170  1.0000
  I   I94       1.0  0.57500  0.57333  0.58656  1.0000
  I   I95       1.0  0.33738  0.56576  0.41544  1.0000
  I   I96       1.0  0.18619  0.53495  0.06796  1.0000
  I   I97       1.0  0.75833  0.79873  0.33337  1.0000
  I   I98       1.0  0.57625  0.85140  0.50009  1.0000
  I   I99       1.0  0.49321  0.98551  0.23927  1.0000
  I   I100      1.0  0.05489  0.02905  0.92471  1.0000
  I   I101      1.0  0.09535  0.98205  0.72178  1.0000
  I   I102      1.0  0.79118  0.69052  0.68953  1.0000
  I   I103      1.0  0.83733  0.11022  0.21479  1.0000
  I   I104      1.0  0.78207  0.18479  0.27711  1.0000
  I   I105      1.0  0.24829  0.86835  0.87790  1.0000
  I   I106      1.0  0.12201  0.54725  0.42868  1.0000
  I   I107      1.0  0.64786  0.99551  0.93105  1.0000
  I   I108      1.0  0.08531  0.59129  0.52958  1.0000
  I   I109      1.0  0.66918  0.15760  0.77100  1.0000
  I   I110      1.0  0.18887  0.16589  0.62536  1.0000
  I   I111      1.0  0.13294  0.98735  0.36223  1.0000
  I   I112      1.0  0.10564  0.74158  0.31375  1.0000
  I   I113      1.0  0.10368  0.32403  0.71212  1.0000
  I   I114      1.0  0.34137  0.07980  0.63503  1.0000
  I   I115      1.0  0.47723  0.75966  0.23204  1.0000
  I   I116      1.0  0.42321  0.76488  0.30549  1.0000
  I   I117      1.0  0.06771  0.35076  0.09597  1.0000
  I   I118      1.0  0.61061  0.56796  0.18525  1.0000
  I   I119      1.0  0.64532  0.57751  0.28540  1.0000
  I   I120      1.0  0.24359  0.95069  0.19813  1.0000
  I   I121      1.0  0.90823  0.88474  0.37065  1.0000
  I   I122      1.0  0.67696  0.68628  0.94537  1.0000
  I   I123      1.0  0.44341  0.91041  0.14943  1.0000
  I   I124      1.0  0.91143  0.21024  0.49283  1.0000
  I   I125      1.0  0.71593  0.37960  0.92065  1.0000
  I   I126      1.0  0.88614  0.99952  0.64415  1.0000
  I   I127      1.0  0.25985  0.88357  0.11710  1.0000
  I   I128      1.0  0.81640  0.14805  0.57091  1.0000
  I   I129      1.0  0.72782  0.26944  0.12442  1.0000
  I   I130      1.0  0.76968  0.67479  0.06371  1.0000
  I   I131      1.0  0.51688  0.49458  0.99854  1.0000
  I   I132      1.0  0.75149  0.48061  0.58119  1.0000
  I   I133      1.0  0.93589  0.81815  0.94370  1.0000
  I   I134      1.0  0.55407  0.23990  0.03563  1.0000
  I   I135      1.0  0.47901  0.28912  0.07406  1.0000
  I   I136      1.0  0.84455  0.43034  0.12733  1.0000
  I   I137      1.0  0.59597  0.86057  0.36184  1.0000
  I   I138      1.0  0.55520  0.64797  0.78390  1.0000
  I   I139      1.0  0.33405  0.58195  0.17479  1.0000
  I   I140      1.0  0.89252  0.89957  0.10320  1.0000
  I   I141      1.0  0.78724  0.57184  0.72538  1.0000
  I   I142      1.0  0.58810  0.53106  0.49646  1.0000
  I   I143      1.0  0.33405  0.50396  0.41720  1.0000
  I   I144      1.0  0.15564  0.51675  0.14096  1.0000
  I   I145      1.0  0.59534  0.78718  0.44420  1.0000
  I   I146      1.0  0.48702  0.02299  0.13222  1.0000
  I   I147      1.0  0.72956  0.86131  0.40676  1.0000
  I   I148      1.0  0.06383  0.94320  0.78854  1.0000
  I   I149      1.0  0.78030  0.75108  0.61691  1.0000
  I   I150      1.0  0.38460  0.33100  0.58958  1.0000
  I   I151      1.0  0.89735  0.10127  0.26434  1.0000
  I   I152      1.0  0.46061  0.20005  0.92736  1.0000
  I   I153      1.0  0.21527  0.94314  0.83949  1.0000
  I   I154      1.0  0.62292  0.17273  0.31273  1.0000
  I   I155      1.0  0.96846  0.42317  0.56273  1.0000
  I   I156      1.0  0.16169  0.58057  0.34045  1.0000
  I   I157      1.0  0.56877  0.15964  0.70509  1.0000
  I   I158      1.0  0.07911  0.95809  0.58960  1.0000
  I   I159      1.0  0.63456  0.22154  0.69477  1.0000
  I   I160      1.0  0.12587  0.77963  0.24781  1.0000
  I   I161      1.0  0.34415  0.05030  0.52175  1.0000
  I   I162      1.0  0.12414  0.72497  0.07752  1.0000
  I   I163      1.0  0.42148  0.75367  0.18512  1.0000
  I   I164      1.0  0.09755  0.27662  0.09465  1.0000
  I   I165      1.0  0.32849  0.95886  0.91622  1.0000
  I   I166      1.0  0.63079  0.48438  0.23519  1.0000
  I   I167      1.0  0.56409  0.05630  0.65677  1.0000
  I   I168      1.0  0.03679  0.90561  0.39511  1.0000
  I   I169      1.0  0.62593  0.73443  0.89776  1.0000
  I   I170      1.0  0.73562  0.69447  0.96317  1.0000
  I   I171      1.0  0.88814  0.93272  0.28758  1.0000
  I   I172      1.0  0.95540  0.17996  0.59823  1.0000
  I   I173      1.0  0.88168  0.95068  0.68836  1.0000
  I   I174      1.0  0.93385  0.23963  0.68621  1.0000
  I   I175      1.0  0.89925  0.22456  0.80622  1.0000
  I   I176      1.0  0.65641  0.31470  0.28120  1.0000
  I   I177      1.0  0.57834  0.43700  0.33845  1.0000
  I   I178      1.0  0.48909  0.45373  0.98957  1.0000
  I   I179      1.0  0.67392  0.52413  0.47282  1.0000
  I   I180      1.0  0.82855  0.65845  0.04553  1.0000
  I   I181      1.0  0.03480  0.46008  0.39454  1.0000
  I   I182      1.0  0.45077  0.33783  0.12356  1.0000
  I   I183      1.0  0.05635  0.74940  0.95981  1.0000
  I   I184      1.0  0.64785  0.82139  0.29994  1.0000
  I   I185      1.0  0.55111  0.66467  0.89553  1.0000
  I   I186      1.0  0.85638  0.37498  0.04343  1.0000
  I   I187      1.0  0.93150  0.92366  0.01856  1.0000
  I   I188      1.0  0.81581  0.53091  0.65465  1.0000
  I   I189      1.0  0.32173  0.63998  0.11077  1.0000
  I   I190      1.0  0.39004  0.41699  0.37887  1.0000
  I   I191      1.0  0.11816  0.15451  0.92500  1.0000
  I   I192      1.0  0.59506  0.46057  0.67187  1.0000
  I   I193      1.0  0.53748  0.81126  0.50737  1.0000
  I   I194      1.0  0.12653  0.11617  0.00420  1.0000
  I   I195      1.0  0.68246  0.83231  0.39055  1.0000
  I   I196      1.0  0.07149  0.05662  0.83285  1.0000
  I   I197      1.0  0.70948  0.16746  0.40033  1.0000
  I   I198      1.0  0.41686  0.38746  0.59729  1.0000
  I   I199      1.0  0.85709  0.14829  0.16928  1.0000
  I   I200      1.0  0.46457  0.28968  0.93368  1.0000
  I   I201      1.0  0.32275  0.85826  0.69888  1.0000
  I   I202      1.0  0.38482  0.13764  0.70776  1.0000
  I   I203      1.0  0.33968  0.98058  0.77681  1.0000
  I   I204      1.0  0.09061  0.64906  0.52395  1.0000
  I   I205      1.0  0.22353  0.10967  0.68929  1.0000
  I   I206      1.0  0.04243  0.99594  0.51234  1.0000
  I   I207      1.0  0.62224  0.15390  0.68257  1.0000
  I   I208      1.0  0.72825  0.88914  0.82189  1.0000
  I   I209      1.0  0.30691  0.11952  0.51624  1.0000
  I   I210      1.0  0.14347  0.69168  0.23406  1.0000
  I   I211      1.0  0.42497  0.71309  0.38161  1.0000
  I   I212      1.0  0.38200  0.87903  0.50165  1.0000
  I   I213      1.0  0.36183  0.00109  0.86461  1.0000
  I   I214      1.0  0.66751  0.51475  0.16426  1.0000
  I   I215      1.0  0.58953  0.00593  0.60363  1.0000
  I   I216      1.0  0.09015  0.84964  0.48557  1.0000
  I   I217      1.0  0.67987  0.72158  0.84557  1.0000
  I   I218      1.0  0.43897  0.89947  0.01375  1.0000
  I   I219      1.0  0.88266  0.94947  0.39681  1.0000
  I   I220      1.0  0.67200  0.41925  0.84219  1.0000
  I   I221      1.0  0.84999  0.00338  0.54389  1.0000
  I   I222      1.0  0.91516  0.23710  0.58627  1.0000
  I   I223      1.0  0.92496  0.16849  0.89959  1.0000
  I   I224      1.0  0.71418  0.27864  0.35152  1.0000
  I   I225      1.0  0.32109  0.82417  0.10080  1.0000
  I   I226      1.0  0.50337  0.48731  0.89410  1.0000
  I   I227      1.0  0.70732  0.55121  0.56042  1.0000
  I   I228      1.0  0.80501  0.68901  0.16472  1.0000
  I   I229      1.0  0.97674  0.53904  0.31134  1.0000
  I   I230      1.0  0.54594  0.28048  0.93780  1.0000
  I   I231      1.0  0.05243  0.71150  0.87011  1.0000
  I   I232      1.0  0.13296  0.97024  0.53965  1.0000
  I   I233      1.0  0.58784  0.65785  0.69880  1.0000
  I   I234      1.0  0.83255  0.41213  0.94131  1.0000
  I   I235      1.0  0.71487  0.20966  0.44782  1.0000
  I   I236      1.0  0.74886  0.61103  0.82564  1.0000
  I   I237      1.0  0.29417  0.59818  0.08137  1.0000
  I   I238      1.0  0.32661  0.54267  0.31244  1.0000
  I   I239      1.0  0.20792  0.46163  0.09324  1.0000
  I   I240      1.0  0.62509  0.48902  0.56586  1.0000
  I   I241      1.0  0.66132  0.68063  0.62890  1.0000
  I   I242      1.0  0.52733  0.04191  0.05941  1.0000
  I   I243      1.0  0.70220  0.86532  0.29653  1.0000
  I   I244      1.0  0.10067  0.96534  0.88933  1.0000
  I   I245      1.0  0.40778  0.56744  0.86899  1.0000
  I   I246      1.0  0.37297  0.34146  0.70606  1.0000
  I   I247      1.0  0.82826  0.13505  0.32133  1.0000
  I   I248      1.0  0.48548  0.18740  0.03235  1.0000
  I   I249      1.0  0.26610  0.92043  0.90742  1.0000
  I   I250      1.0  0.32771  0.20048  0.75897  1.0000
  I   I251      1.0  0.92023  0.47921  0.52264  1.0000
  I   I252      1.0  0.19289  0.53613  0.41606  1.0000
  I   I253      1.0  0.13791  0.13252  0.49711  1.0000
  I   I254      1.0  0.06214  0.02372  0.58636  1.0000
  I   I255      1.0  0.60043  0.20927  0.75647  1.0000
  I   I256      1.0  0.10291  0.26328  0.71478  1.0000
  I   I257      1.0  0.27823  0.08937  0.60435  1.0000
  I   I258      1.0  0.16202  0.71707  0.16819  1.0000
  I   I259      1.0  0.39342  0.73076  0.26443  1.0000
  I   I260      1.0  0.09584  0.31088  0.20703  1.0000
  I   I261      1.0  0.26434  0.98668  0.91220  1.0000
  I   I262      1.0  0.65971  0.45801  0.13977  1.0000
  I   I263      1.0  0.46785  0.03274  0.50225  1.0000
  I   I264      1.0  0.10527  0.88155  0.40375  1.0000
  I   I265      1.0  0.67114  0.74089  0.00073  1.0000
  I   I266      1.0  0.39147  0.94999  0.22867  1.0000
  I   I267      1.0  0.94566  0.90344  0.43738  1.0000
  I   I268      1.0  0.66287  0.48424  0.73798  1.0000
  I   I269      1.0  0.85668  0.94585  0.80410  1.0000
  I   I270      1.0  0.94582  0.24900  0.48478  1.0000
  I   I271      1.0  0.90142  0.15918  0.79093  1.0000
  I   I272      1.0  0.67318  0.34427  0.17224  1.0000
  I   I273      1.0  0.25732  0.82476  0.07025  1.0000
  I   I274      1.0  0.56000  0.42849  0.99831  1.0000
  I   I275      1.0  0.64680  0.56616  0.56766  1.0000
  I   I276      1.0  0.79600  0.71798  0.00967  1.0000
  I   I277      1.0  0.01721  0.48195  0.28085  1.0000
  I   I278      1.0  0.54744  0.28939  0.11473  1.0000
  I   I279      1.0  0.93252  0.77677  0.99822  1.0000
  I   I280      1.0  0.62835  0.88201  0.41245  1.0000
  I   I281      1.0  0.57591  0.71215  0.92034  1.0000
  I   I282      1.0  0.80488  0.46262  0.03210  1.0000
  I   I283      1.0  0.64927  0.18578  0.41788  1.0000
  I   I284      1.0  0.80492  0.61652  0.75511  1.0000
  I   I285      1.0  0.30607  0.64010  0.22918  1.0000
  I   I286      1.0  0.35781  0.46556  0.30418  1.0000
  I   I287      1.0  0.07031  0.57524  0.05143  1.0000
  I   I288      1.0  0.52957  0.49211  0.66188  1.0000
  I   I289      1.0  0.71142  0.67946  0.59335  1.0000
  I   I290      1.0  0.06206  0.13527  0.92259  1.0000
  I   I291      1.0  0.58130  0.00643  0.14592  1.0000
  I   I292      1.0  0.12607  0.93140  0.76830  1.0000
  I   I293      1.0  0.38254  0.57724  0.73501  1.0000
  I   I294      1.0  0.43619  0.31764  0.60424  1.0000
  I   I295      1.0  0.80549  0.17986  0.39298  1.0000
  I   I296      1.0  0.49812  0.23229  0.96835  1.0000
  I   I297      1.0  0.31797  0.86607  0.82235  1.0000
  I   I298      1.0  0.69127  0.13552  0.30572  1.0000
  I   I299      1.0  0.68198  0.00516  0.82232  1.0000
  I   I300      1.0  0.15132  0.58927  0.46828  1.0000
  I   I301      1.0  0.67633  0.16302  0.65142  1.0000
  I   I302      1.0  0.11374  0.10710  0.58301  1.0000
  I   I303      1.0  0.15652  0.17578  0.05392  1.0000
  I   I304      1.0  0.17440  0.72521  0.29625  1.0000
  I   I305      1.0  0.69005  0.94286  0.80308  1.0000
  I   I306      1.0  0.48988  0.35600  0.13659  1.0000
  I   I307      1.0  0.49364  0.70018  0.21633  1.0000
  I   I308      1.0  0.41472  0.91060  0.51614  1.0000
  I   I309      1.0  0.30248  0.98533  0.03802  1.0000
  I   I310      1.0  0.71162  0.44596  0.20646  1.0000
  I   I311      1.0  0.50604  0.07162  0.57638  1.0000
  I   I312      1.0  0.22266  0.91173  0.29689  1.0000
  I   I313      1.0  0.88214  0.85397  0.31249  1.0000
  I   I314      1.0  0.69415  0.75720  0.90778  1.0000
  I   I315      1.0  0.36747  0.91235  0.01775  1.0000
  I   I316      1.0  0.93812  0.17934  0.72607  1.0000
  I   I317      1.0  0.74660  0.41304  0.82119  1.0000
  I   I318      1.0  0.82151  0.98831  0.64862  1.0000
  I   I319      1.0  0.55934  0.38972  0.30527  1.0000
  I   I320      1.0  0.84675  0.07599  0.59115  1.0000
  I   I321      1.0  0.70570  0.33233  0.30578  1.0000
  I   I322      1.0  0.48251  0.55007  0.85564  1.0000
  I   I323      1.0  0.68296  0.50719  0.59134  1.0000
  I   I324      1.0  0.77098  0.73286  0.23709  1.0000
  I   I325      1.0  0.94928  0.49669  0.37309  1.0000
  I   I326      1.0  0.49839  0.29605  0.19099  1.0000
  I   I327      1.0  0.99569  0.76584  0.89741  1.0000
  I   I328      1.0  0.19125  0.13503  0.13192  1.0000
  I   I329      1.0  0.57457  0.69765  0.78252  1.0000
  I   I330      1.0  0.80234  0.41040  0.03277  1.0000
  I   I331      1.0  0.25214  0.64287  0.14976  1.0000
  I   I332      1.0  0.65071  0.23851  0.48852  1.0000
  I   I333      1.0  0.82316  0.50090  0.77629  1.0000
  I   I334      1.0  0.57473  0.47711  0.54611  1.0000
  I   I335      1.0  0.39078  0.52089  0.33529  1.0000
  I   I336      1.0  0.10827  0.57851  0.12915  1.0000
  I   I337      1.0  0.59854  0.78812  0.56840  1.0000
  I   I338      1.0  0.13294  0.07612  0.89816  1.0000
  I   I339      1.0  0.53162  0.06262  0.16653  1.0000
  I   I340      1.0  0.12493  0.99994  0.83173  1.0000
  I   I341      1.0  0.72804  0.72639  0.62315  1.0000
  I   I342      1.0  0.40212  0.36149  0.49431  1.0000
  I   I343      1.0  0.86396  0.15818  0.31218  1.0000
  I   I344      1.0  0.42762  0.25615  0.89503  1.0000
  I   I345      1.0  0.24043  0.88753  0.76387  1.0000
  I   I346      1.0  0.67084  0.23041  0.36567  1.0000
  I   I347      1.0  0.39258  0.16844  0.80527  1.0000
  I   I348      1.0  0.04538  0.63200  0.46124  1.0000
  I   I349      1.0  0.61611  0.14345  0.81660  1.0000
  I   I350      1.0  0.16385  0.06871  0.51237  1.0000
  I   I351      1.0  0.17233  0.97956  0.45440  1.0000
  I   I352      1.0  0.09521  0.69432  0.14251  1.0000
  I   I353      1.0  0.03205  0.33783  0.68446  1.0000
  I   I354      1.0  0.44073  0.33603  0.24954  1.0000
  I   I355      1.0  0.45205  0.67590  0.27047  1.0000
  I   I356      1.0  0.13833  0.30388  0.09743  1.0000
  I   I357      1.0  0.30742  0.02663  0.93745  1.0000
  I   I358      1.0  0.07531  0.84185  0.35217  1.0000
  I   I359      1.0  0.52322  0.06314  0.45709  1.0000
  I   I360      1.0  0.19411  0.97971  0.27553  1.0000
  I   I361      1.0  0.94213  0.86628  0.27281  1.0000
  I   I362      1.0  0.63958  0.78836  0.86450  1.0000
  I   I363      1.0  0.40927  0.98470  0.15066  1.0000
  I   I364      1.0  0.88579  0.20976  0.65954  1.0000
  I   I365      1.0  0.70760  0.47937  0.80926  1.0000
  I   I366      1.0  0.89564  0.94464  0.57049  1.0000
  I   I367      1.0  0.52379  0.44408  0.41641  1.0000
  I   I368      1.0  0.83504  0.13240  0.67293  1.0000
  I   I369      1.0  0.73480  0.29401  0.21835  1.0000
  I   I370      1.0  0.50942  0.55642  0.96020  1.0000
  I   I371      1.0  0.71378  0.55224  0.44836  1.0000
  I   I372      1.0  0.81662  0.72524  0.10318  1.0000
  I   I373      1.0  0.94877  0.52432  0.23058  1.0000
  I   I374      1.0  0.58621  0.27839  0.01494  1.0000
  I   I375      1.0  0.04631  0.69119  0.99274  1.0000
  I   I376      1.0  0.64154  0.80902  0.42914  1.0000
  I   I377      1.0  0.62348  0.60184  0.76098  1.0000
  I   I378      1.0  0.87258  0.42162  0.00437  1.0000
  I   I379      1.0  0.23290  0.64522  0.04312  1.0000
  I   I380      1.0  0.86796  0.96612  0.06142  1.0000
  I   I381      1.0  0.82685  0.54485  0.81688  1.0000
  I   I382      1.0  0.59049  0.51427  0.66741  1.0000
  I   I383      1.0  0.39436  0.48087  0.41141  1.0000
  I   I384      1.0  0.12818  0.50377  0.05804  1.0000
