data_image0
_chemical_formula_structural       Ti96I384
_chemical_formula_sum              "Ti96 I384"
_cell_length_a       56.4744
_cell_length_b       57.0729
_cell_length_c       27.5607
_cell_angle_alpha    88.7757
_cell_angle_beta     88.7757
_cell_angle_gamma    62.1586

_space_group_name_H-M_alt    "P 1"
_space_group_IT_number       1

loop_
  _space_group_symop_operation_xyz
  'x, y, z'

loop_
  _atom_site_type_symbol
  _atom_site_label
  _atom_site_symmetry_multiplicity
  _atom_site_fract_x
  _atom_site_fract_y
  _atom_site_fract_z
  _atom_site_occupancy
  Ti  Ti1       1.0  0.88679  0.70136  0.09240  1.0000
  Ti  Ti2       1.0  0.85400  0.94151  0.09169  1.0000
  Ti  Ti3       1.0  0.94485  0.67392  0.50195  1.0000
  Ti  Ti4       1.0  0.30778  0.09847  0.26643  1.0000
  Ti  Ti5       1.0  0.05559  0.06458  0.01961  1.0000
  Ti  Ti6       1.0  0.11659  0.14333  0.27958  1.0000
  Ti  Ti7       1.0  0.95823  0.81470  0.59990  1.0000
  Ti  Ti8       1.0  0.09960  0.94653  0.45515  1.0000
  Ti  Ti9       1.0  0.68939  0.11285  0.72100  1.0000
  Ti  Ti10      1.0  0.37684  0.91278  0.20044  1.0000
  Ti  Ti11      1.0  0.27509  0.59781  0.71923  1.0000
  Ti  Ti12      1.0  0.82393  0.79989  0.65696  1.0000
  Ti  Ti13      1.0  0.45049  0.30060  0.78131  1.0000
  Ti  Ti14      1.0  0.22879  0.39009  0.40602  1.0000
  Ti  Ti15      1.0  0.26598  0.08308  0.04228  1.0000
  Ti  Ti16      1.0  0.09068  0.82244  0.33211  1.0000
  Ti  Ti17      1.0  0.19612  0.63557  0.19617  1.0000
  Ti  Ti18      1.0  0.05808  0.29352  0.24748  1.0000
  Ti  Ti19      1.0  0.64880  0.64864  0.30972  1.0000
  Ti  Ti20      1.0  0.73228  0.85954  0.22321  1.0000
  Ti  Ti21      1.0  0.37375  0.40895  0.09721  1.0000
  Ti  Ti22      1.0  0.44898  0.03138  0.51552  1.0000
  Ti  Ti23      1.0  0.58686  0.83050  0.83101  1.0000
  Ti  Ti24      1.0  0.57040  0.93753  0.51517  1.0000
  Ti  Ti25      1.0  0.26184  0.17950  0.74009  1.0000
  Ti  Ti26      1.0  0.15440  0.41575  0.69064  1.0000
  Ti  Ti27      1.0  0.23150  0.55040  0.39651  1.0000
  Ti  Ti28      1.0  0.52521  0.65694  0.44018  1.0000
  Ti  Ti29      1.0  0.77075  0.39726  0.48602  1.0000
  Ti  Ti30      1.0  0.79792  0.51019  0.54265  1.0000
  Ti  Ti31      1.0  0.66920  0.51083  0.12334  1.0000
  Ti  Ti32      1.0  0.89725  0.12376  0.42931  1.0000
  Ti  Ti33      1.0  0.89256  0.28264  0.89176  1.0000
  Ti  Ti34      1.0  0.97012  0.76963  0.25023  1.0000
  Ti  Ti35      1.0  0.73133  0.61300  0.91740  1.0000
  Ti  Ti36      1.0  0.09188  0.56571  0.62076  1.0000
  Ti  Ti37      1.0  0.74982  0.26333  0.25993  1.0000
  Ti  Ti38      1.0  0.57798  0.29036  0.34478  1.0000
  Ti  Ti39      1.0  0.28912  0.79523  0.27555  1.0000
  Ti  Ti40      1.0  0.37066  0.78824  0.90950  1.0000
  Ti  Ti41      1.0  0.65073  0.38472  0.73132  1.0000
  Ti  Ti42      1.0  0.50086  0.71013  0.14355  1.0000
  Ti  Ti43      1.0  0.86261  0.17014  0.91176  1.0000
  Ti  Ti44      1.0  0.89281  0.55179  0.31797  1.0000
  Ti  Ti45      1.0  0.06068  0.45607  0.29238  1.0000
  Ti  Ti46      1.0  0.57554  0.17863  0.58682  1.0000
  Ti  Ti47      1.0  0.41663  0.27620  0.38088  1.0000
  Ti  Ti48      1.0  0.52625  0.35236  0.06436  1.0000
  Ti  Ti49      1.0  0.90813  0.62943  0.10888  1.0000
  Ti  Ti50      1.0  0.78689  0.94334  0.18005  1.0000
  Ti  Ti51      1.0  0.93358  0.87984  0.05312  1.0000
  Ti  Ti52      1.0  0.30018  0.09571  0.37986  1.0000
  Ti  Ti53      1.0  0.12311  0.07973  0.94366  1.0000
  Ti  Ti54      1.0  0.16953  0.07886  0.35168  1.0000
  Ti  Ti55      1.0  0.97294  0.78691  0.73987  1.0000
  Ti  Ti56      1.0  0.13615  0.91223  0.57240  1.0000
  Ti  Ti57      1.0  0.72562  0.04562  0.72222  1.0000
  Ti  Ti58      1.0  0.10473  0.98356  0.12601  1.0000
  Ti  Ti59      1.0  0.43955  0.91516  0.16570  1.0000
  Ti  Ti60      1.0  0.82847  0.77068  0.79473  1.0000
  Ti  Ti61      1.0  0.23022  0.14611  0.03333  1.0000
  Ti  Ti62      1.0  0.44089  0.24864  0.82867  1.0000
  Ti  Ti63      1.0  0.23269  0.36434  0.29184  1.0000
  Ti  Ti64      1.0  0.08257  0.30576  0.10367  1.0000
  Ti  Ti65      1.0  0.15833  0.77391  0.24948  1.0000
  Ti  Ti66      1.0  0.26229  0.77525  0.71422  1.0000
  Ti  Ti67      1.0  0.72775  0.64485  0.32729  1.0000
  Ti  Ti68      1.0  0.70578  0.87156  0.33529  1.0000
  Ti  Ti69      1.0  0.35431  0.41697  0.98076  1.0000
  Ti  Ti70      1.0  0.50239  0.98773  0.43640  1.0000
  Ti  Ti71      1.0  0.65621  0.80188  0.90815  1.0000
  Ti  Ti72      1.0  0.49575  0.86423  0.79757  1.0000
  Ti  Ti73      1.0  0.18499  0.54806  0.45081  1.0000
  Ti  Ti74      1.0  0.31698  0.14268  0.65089  1.0000
  Ti  Ti75      1.0  0.11519  0.36843  0.71905  1.0000
  Ti  Ti76      1.0  0.84890  0.53570  0.62625  1.0000
  Ti  Ti77      1.0  0.49449  0.62132  0.50330  1.0000
  Ti  Ti78      1.0  0.74133  0.48813  0.55075  1.0000
  Ti  Ti79      1.0  0.92483  0.32230  0.79127  1.0000
  Ti  Ti80      1.0  0.62364  0.51345  0.19810  1.0000
  Ti  Ti81      1.0  0.91015  0.07645  0.29807  1.0000
  Ti  Ti82      1.0  0.03091  0.70176  0.22840  1.0000
  Ti  Ti83      1.0  0.69262  0.61818  0.80814  1.0000
  Ti  Ti84      1.0  0.05356  0.53156  0.59324  1.0000
  Ti  Ti85      1.0  0.71675  0.31848  0.12650  1.0000
  Ti  Ti86      1.0  0.56354  0.32908  0.44181  1.0000
  Ti  Ti87      1.0  0.29879  0.85441  0.32194  1.0000
  Ti  Ti88      1.0  0.36326  0.85878  0.91725  1.0000
  Ti  Ti89      1.0  0.58623  0.38060  0.67896  1.0000
  Ti  Ti90      1.0  0.49172  0.72174  0.00244  1.0000
  Ti  Ti91      1.0  0.06829  0.48393  0.13536  1.0000
  Ti  Ti92      1.0  0.78905  0.22435  0.57776  1.0000
  Ti  Ti93      1.0  0.95715  0.50765  0.39119  1.0000
  Ti  Ti94      1.0  0.49990  0.37728  0.93918  1.0000
  Ti  Ti95      1.0  0.56554  0.10724  0.63916  1.0000
  Ti  Ti96      1.0  0.40904  0.20828  0.37386  1.0000
  I   I1        1.0  0.74734  0.98042  0.23096  1.0000
  I   I2        1.0  0.87944  0.90987  0.01770  1.0000
  I   I3        1.0  0.93381  0.65826  0.13132  1.0000
  I   I4        1.0  0.07908  0.06500  0.93346  1.0000
  I   I5        1.0  0.12621  0.13229  0.38828  1.0000
  I   I6        1.0  0.18976  0.03475  0.30096  1.0000
  I   I7        1.0  0.18732  0.88722  0.59631  1.0000
  I   I8        1.0  0.08508  0.91230  0.57664  1.0000
  I   I9        1.0  0.68744  0.12985  0.62845  1.0000
  I   I10       1.0  0.39127  0.87853  0.12969  1.0000
  I   I11       1.0  0.31495  0.59722  0.66420  1.0000
  I   I12       1.0  0.11819  0.97703  0.03107  1.0000
  I   I13       1.0  0.43297  0.30134  0.87496  1.0000
  I   I14       1.0  0.26780  0.34741  0.22509  1.0000
  I   I15       1.0  0.21952  0.10790  0.10173  1.0000
  I   I16       1.0  0.09678  0.79239  0.25017  1.0000
  I   I17       1.0  0.25884  0.81752  0.75545  1.0000
  I   I18       1.0  0.12131  0.26666  0.06838  1.0000
  I   I19       1.0  0.69924  0.83397  0.37588  1.0000
  I   I20       1.0  0.37434  0.45217  0.11784  1.0000
  I   I21       1.0  0.31740  0.44559  0.04558  1.0000
  I   I22       1.0  0.70242  0.77311  0.86539  1.0000
  I   I23       1.0  0.59417  0.84200  0.74238  1.0000
  I   I24       1.0  0.56296  0.97420  0.43136  1.0000
  I   I25       1.0  0.29769  0.12481  0.73660  1.0000
  I   I26       1.0  0.10327  0.41938  0.68437  1.0000
  I   I27       1.0  0.26023  0.51806  0.46040  1.0000
  I   I28       1.0  0.53573  0.62569  0.53933  1.0000
  I   I29       1.0  0.74207  0.44055  0.57553  1.0000
  I   I30       1.0  0.79863  0.52770  0.63836  1.0000
  I   I31       1.0  0.67594  0.48348  0.23098  1.0000
  I   I32       1.0  0.89337  0.04119  0.29049  1.0000
  I   I33       1.0  0.89903  0.23296  0.90606  1.0000
  I   I34       1.0  0.71135  0.65391  0.96892  1.0000
  I   I35       1.0  0.06332  0.48449  0.57187  1.0000
  I   I36       1.0  0.04827  0.69265  0.13579  1.0000
  I   I37       1.0  0.76477  0.27719  0.16687  1.0000
  I   I38       1.0  0.28652  0.88607  0.24212  1.0000
  I   I39       1.0  0.71664  0.36081  0.15618  1.0000
  I   I40       1.0  0.61379  0.36843  0.77405  1.0000
  I   I41       1.0  0.45815  0.70275  0.99078  1.0000
  I   I42       1.0  0.38840  0.81673  0.84463  1.0000
  I   I43       1.0  0.84380  0.19403  0.83086  1.0000
  I   I44       1.0  0.93904  0.50046  0.29946  1.0000
  I   I45       1.0  0.08269  0.46487  0.37014  1.0000
  I   I46       1.0  0.55806  0.22151  0.62567  1.0000
  I   I47       1.0  0.37954  0.31153  0.43325  1.0000
  I   I48       1.0  0.48570  0.40352  0.02247  1.0000
  I   I49       1.0  0.91585  0.70763  0.02938  1.0000
  I   I50       1.0  0.82301  0.91579  0.09289  1.0000
  I   I51       1.0  0.94886  0.88893  0.96887  1.0000
  I   I52       1.0  0.25472  0.10871  0.33791  1.0000
  I   I53       1.0  0.04550  0.10969  0.04851  1.0000
  I   I54       1.0  0.09606  0.10727  0.28299  1.0000
  I   I55       1.0  0.97768  0.78573  0.51653  1.0000
  I   I56       1.0  0.10764  0.96831  0.54186  1.0000
  I   I57       1.0  0.74013  0.08313  0.72025  1.0000
  I   I58       1.0  0.46294  0.94370  0.17772  1.0000
  I   I59       1.0  0.32804  0.95324  0.18071  1.0000
  I   I60       1.0  0.80158  0.81885  0.76614  1.0000
  I   I61       1.0  0.46145  0.22554  0.91166  1.0000
  I   I62       1.0  0.44112  0.20671  0.79372  1.0000
  I   I63       1.0  0.24353  0.37224  0.49118  1.0000
  I   I64       1.0  0.06321  0.87059  0.28415  1.0000
  I   I65       1.0  0.20497  0.77095  0.24616  1.0000
  I   I66       1.0  0.22965  0.76555  0.76953  1.0000
  I   I67       1.0  0.71264  0.67402  0.41363  1.0000
  I   I68       1.0  0.77217  0.84078  0.15719  1.0000
  I   I69       1.0  0.40562  0.40200  0.01692  1.0000
  I   I70       1.0  0.45599  0.99123  0.44660  1.0000
  I   I71       1.0  0.62643  0.85148  0.85558  1.0000
  I   I72       1.0  0.46267  0.89362  0.86052  1.0000
  I   I73       1.0  0.25798  0.53513  0.31275  1.0000
  I   I74       1.0  0.15573  0.42702  0.60016  1.0000
  I   I75       1.0  0.07798  0.38827  0.78598  1.0000
  I   I76       1.0  0.51035  0.68380  0.35813  1.0000
  I   I77       1.0  0.52615  0.57129  0.50354  1.0000
  I   I78       1.0  0.74476  0.52736  0.50081  1.0000
  I   I79       1.0  0.93851  0.29182  0.71032  1.0000
  I   I80       1.0  0.60168  0.54751  0.26962  1.0000
  I   I81       1.0  0.87166  0.12448  0.51597  1.0000
  I   I82       1.0  0.96947  0.81191  0.21351  1.0000
  I   I83       1.0  0.76840  0.61828  0.86389  1.0000
  I   I84       1.0  0.06103  0.52143  0.68996  1.0000
  I   I85       1.0  0.73038  0.32039  0.03498  1.0000
  I   I86       1.0  0.57904  0.33014  0.53301  1.0000
  I   I87       1.0  0.28420  0.77300  0.20247  1.0000
  I   I88       1.0  0.38339  0.74624  0.85719  1.0000
  I   I89       1.0  0.60757  0.38001  0.59334  1.0000
  I   I90       1.0  0.52373  0.73629  0.17705  1.0000
  I   I91       1.0  0.10774  0.48667  0.08971  1.0000
  I   I92       1.0  0.83589  0.19609  0.61300  1.0000
  I   I93       1.0  0.00552  0.47375  0.35733  1.0000
  I   I94       1.0  0.49640  0.41754  0.88955  1.0000
  I   I95       1.0  0.57880  0.09078  0.73050  1.0000
  I   I96       1.0  0.42528  0.23413  0.44275  1.0000
  I   I97       1.0  0.90421  0.66226  0.52632  1.0000
  I   I98       1.0  0.87596  0.74424  0.13357  1.0000
  I   I99       1.0  0.90327  0.89908  0.13492  1.0000
  I   I100      1.0  0.31369  0.05336  0.31688  1.0000
  I   I101      1.0  0.29053  0.15022  0.29118  1.0000
  I   I102      1.0  0.11121  0.06311  0.04165  1.0000
  I   I103      1.0  0.96233  0.82226  0.80589  1.0000
  I   I104      1.0  0.90949  0.85296  0.55820  1.0000
  I   I105      1.0  0.73310  0.00399  0.78982  1.0000
  I   I106      1.0  0.84508  0.78933  0.57175  1.0000
  I   I107      1.0  0.44202  0.87701  0.23111  1.0000
  I   I108      1.0  0.78760  0.78186  0.86188  1.0000
  I   I109      1.0  0.22146  0.10625  0.97777  1.0000
  I   I110      1.0  0.49185  0.24690  0.78157  1.0000
  I   I111      1.0  0.18048  0.43339  0.43161  1.0000
  I   I112      1.0  0.06184  0.27338  0.16256  1.0000
  I   I113      1.0  0.16778  0.75273  0.16491  1.0000
  I   I114      1.0  0.18220  0.59814  0.17539  1.0000
  I   I115      1.0  0.70116  0.61635  0.34354  1.0000
  I   I116      1.0  0.77862  0.61278  0.33838  1.0000
  I   I117      1.0  0.76616  0.84702  0.31035  1.0000
  I   I118      1.0  0.49476  0.99388  0.33637  1.0000
  I   I119      1.0  0.39272  0.05371  0.49826  1.0000
  I   I120      1.0  0.53716  0.88609  0.83120  1.0000
  I   I121      1.0  0.24752  0.58735  0.40593  1.0000
  I   I122      1.0  0.33649  0.16831  0.69595  1.0000
  I   I123      1.0  0.13743  0.46292  0.73462  1.0000
  I   I124      1.0  0.79416  0.55649  0.52192  1.0000
  I   I125      1.0  0.47222  0.67678  0.49284  1.0000
  I   I126      1.0  0.78097  0.44001  0.45428  1.0000
  I   I127      1.0  0.88863  0.33469  0.86388  1.0000
  I   I128      1.0  0.66340  0.52397  0.02720  1.0000
  I   I129      1.0  0.90785  0.07110  0.39714  1.0000
  I   I130      1.0  0.14162  0.54667  0.64910  1.0000
  I   I131      1.0  0.99364  0.71624  0.30270  1.0000
  I   I132      1.0  0.66990  0.59467  0.76013  1.0000
  I   I133      1.0  0.26088  0.88501  0.37719  1.0000
  I   I134      1.0  0.60266  0.32711  0.38475  1.0000
  I   I135      1.0  0.61521  0.28360  0.27851  1.0000
  I   I136      1.0  0.52756  0.66538  0.19732  1.0000
  I   I137      1.0  0.33550  0.89011  0.84227  1.0000
  I   I138      1.0  0.66376  0.41080  0.79839  1.0000
  I   I139      1.0  0.07059  0.49821  0.23837  1.0000
  I   I140      1.0  0.76334  0.19875  0.56872  1.0000
  I   I141      1.0  0.94514  0.55418  0.31832  1.0000
  I   I142      1.0  0.56028  0.30017  0.07448  1.0000
  I   I143      1.0  0.56089  0.15629  0.67479  1.0000
  I   I144      1.0  0.39612  0.18083  0.44191  1.0000
  I   I145      1.0  0.91960  0.62252  0.01845  1.0000
  I   I146      1.0  0.82416  0.97821  0.03044  1.0000
  I   I147      1.0  0.92329  0.71950  0.45360  1.0000
  I   I148      1.0  0.29955  0.13714  0.42676  1.0000
  I   I149      1.0  0.09631  0.11713  0.87793  1.0000
  I   I150      1.0  0.07590  0.18452  0.31499  1.0000
  I   I151      1.0  0.95175  0.76362  0.78793  1.0000
  I   I152      1.0  0.08588  0.91763  0.40074  1.0000
  I   I153      1.0  0.67896  0.07184  0.77172  1.0000
  I   I154      1.0  0.14634  0.93818  0.13493  1.0000
  I   I155      1.0  0.26990  0.59638  0.81051  1.0000
  I   I156      1.0  0.79819  0.77272  0.65909  1.0000
  I   I157      1.0  0.17897  0.16837  0.04209  1.0000
  I   I158      1.0  0.19546  0.41389  0.26811  1.0000
  I   I159      1.0  0.29658  0.10609  0.00738  1.0000
  I   I160      1.0  0.09627  0.25100  0.28900  1.0000
  I   I161      1.0  0.21914  0.65220  0.12872  1.0000
  I   I162      1.0  0.01685  0.28393  0.26255  1.0000
  I   I163      1.0  0.64402  0.60253  0.33228  1.0000
  I   I164      1.0  0.69187  0.89004  0.17320  1.0000
  I   I165      1.0  0.42347  0.36350  0.11257  1.0000
  I   I166      1.0  0.47979  0.04533  0.45832  1.0000
  I   I167      1.0  0.63531  0.78240  0.82727  1.0000
  I   I168      1.0  0.56607  0.90702  0.57797  1.0000
  I   I169      1.0  0.24166  0.22852  0.71864  1.0000
  I   I170      1.0  0.26133  0.17123  0.63192  1.0000
  I   I171      1.0  0.17808  0.58132  0.36513  1.0000
  I   I172      1.0  0.85769  0.56283  0.54907  1.0000
  I   I173      1.0  0.80143  0.36457  0.55980  1.0000
  I   I174      1.0  0.79897  0.46741  0.58600  1.0000
  I   I175      1.0  0.63990  0.55805  0.15854  1.0000
  I   I176      1.0  0.89474  0.09474  0.20835  1.0000
  I   I177      1.0  0.85903  0.29198  0.82219  1.0000
  I   I178      1.0  0.98439  0.73573  0.16834  1.0000
  I   I179      1.0  0.69030  0.59935  0.90911  1.0000
  I   I180      1.0  0.09495  0.61330  0.60820  1.0000
  I   I181      1.0  0.70889  0.31235  0.24754  1.0000
  I   I182      1.0  0.52641  0.31233  0.40767  1.0000
  I   I183      1.0  0.28176  0.76537  0.34181  1.0000
  I   I184      1.0  0.38111  0.75322  0.98102  1.0000
  I   I185      1.0  0.68324  0.33262  0.72698  1.0000
  I   I186      1.0  0.51664  0.68971  0.92417  1.0000
  I   I187      1.0  0.76367  0.26936  0.61350  1.0000
  I   I188      1.0  0.86456  0.54015  0.25715  1.0000
  I   I189      1.0  0.05325  0.41467  0.30924  1.0000
  I   I190      1.0  0.54085  0.18617  0.52242  1.0000
  I   I191      1.0  0.39968  0.31232  0.30969  1.0000
  I   I192      1.0  0.50919  0.37413  0.15580  1.0000
  I   I193      1.0  0.86148  0.67197  0.14233  1.0000
  I   I194      1.0  0.81881  0.96670  0.18610  1.0000
  I   I195      1.0  0.96081  0.68460  0.58293  1.0000
  I   I196      1.0  0.34212  0.08279  0.20092  1.0000
  I   I197      1.0  0.05670  0.03258  0.09206  1.0000
  I   I198      1.0  0.16820  0.11324  0.26808  1.0000
  I   I199      1.0  0.99144  0.83108  0.63052  1.0000
  I   I200      1.0  0.12919  0.91125  0.67193  1.0000
  I   I201      1.0  0.68472  0.14464  0.79289  1.0000
  I   I202      1.0  0.36102  0.90185  0.27984  1.0000
  I   I203      1.0  0.22921  0.62224  0.67644  1.0000
  I   I204      1.0  0.86686  0.75541  0.70693  1.0000
  I   I205      1.0  0.49137  0.30775  0.75129  1.0000
  I   I206      1.0  0.20486  0.35862  0.38142  1.0000
  I   I207      1.0  0.25176  0.15980  0.10394  1.0000
  I   I208      1.0  0.05006  0.81644  0.35589  1.0000
  I   I209      1.0  0.15178  0.67344  0.23058  1.0000
  I   I210      1.0  0.02639  0.33153  0.30863  1.0000
  I   I211      1.0  0.67180  0.68365  0.30191  1.0000
  I   I212      1.0  0.71671  0.82422  0.24789  1.0000
  I   I213      1.0  0.34241  0.39431  0.91029  1.0000
  I   I214      1.0  0.43884  0.07417  0.56580  1.0000
  I   I215      1.0  0.58906  0.82970  0.93635  1.0000
  I   I216      1.0  0.61314  0.89741  0.48252  1.0000
  I   I217      1.0  0.22363  0.16785  0.77861  1.0000
  I   I218      1.0  0.20575  0.39759  0.70179  1.0000
  I   I219      1.0  0.20928  0.57239  0.49997  1.0000
  I   I220      1.0  0.53880  0.68781  0.48551  1.0000
  I   I221      1.0  0.73126  0.39030  0.48622  1.0000
  I   I222      1.0  0.82199  0.48923  0.45611  1.0000
  I   I223      1.0  0.70907  0.51005  0.16109  1.0000
  I   I224      1.0  0.88154  0.17502  0.44303  1.0000
  I   I225      1.0  0.89968  0.28434  0.98185  1.0000
  I   I226      1.0  0.98710  0.77760  0.33102  1.0000
  I   I227      1.0  0.76181  0.57691  0.97121  1.0000
  I   I228      1.0  0.10557  0.52355  0.55297  1.0000
  I   I229      1.0  0.76655  0.27559  0.34825  1.0000
  I   I230      1.0  0.56726  0.25144  0.32766  1.0000
  I   I231      1.0  0.33867  0.85933  0.35785  1.0000
  I   I232      1.0  0.31925  0.81898  0.90662  1.0000
  I   I233      1.0  0.59925  0.42404  0.70993  1.0000
  I   I234      1.0  0.50077  0.76103  0.98056  1.0000
  I   I235      1.0  0.82777  0.15267  0.92445  1.0000
  I   I236      1.0  0.89325  0.54205  0.40887  1.0000
  I   I237      1.0  0.03933  0.46632  0.20479  1.0000
  I   I238      1.0  0.61519  0.18268  0.53619  1.0000
  I   I239      1.0  0.44801  0.29533  0.40885  1.0000
  I   I240      1.0  0.56333  0.36703  0.05315  1.0000
  I   I241      1.0  0.85393  0.69753  0.01653  1.0000
  I   I242      1.0  0.88046  0.96616  0.11384  1.0000
  I   I243      1.0  0.97889  0.62552  0.45730  1.0000
  I   I244      1.0  0.26416  0.11057  0.20576  1.0000
  I   I245      1.0  0.14329  0.10540  0.98086  1.0000
  I   I246      1.0  0.10541  0.14997  0.19082  1.0000
  I   I247      1.0  0.92767  0.81558  0.68071  1.0000
  I   I248      1.0  0.12007  0.96698  0.39725  1.0000
  I   I249      1.0  0.63470  0.14899  0.73090  1.0000
  I   I250      1.0  0.40423  0.93537  0.25263  1.0000
  I   I251      1.0  0.29085  0.54793  0.71278  1.0000
  I   I252      1.0  0.79163  0.84818  0.62944  1.0000
  I   I253      1.0  0.41808  0.35183  0.77586  1.0000
  I   I254      1.0  0.27358  0.35127  0.35362  1.0000
  I   I255      1.0  0.23931  0.17679  0.96896  1.0000
  I   I256      1.0  0.11919  0.80472  0.40861  1.0000
  I   I257      1.0  0.22628  0.62259  0.26814  1.0000
  I   I258      1.0  0.04519  0.32106  0.03281  1.0000
  I   I259      1.0  0.63879  0.65014  0.21816  1.0000
  I   I260      1.0  0.65577  0.90365  0.32916  1.0000
  I   I261      1.0  0.34499  0.41416  0.17461  1.0000
  I   I262      1.0  0.43148  0.01122  0.58411  1.0000
  I   I263      1.0  0.54411  0.81981  0.80468  1.0000
  I   I264      1.0  0.58892  0.95972  0.57085  1.0000
  I   I265      1.0  0.27123  0.19003  0.82686  1.0000
  I   I266      1.0  0.16211  0.36476  0.67014  1.0000
  I   I267      1.0  0.20779  0.51222  0.38198  1.0000
  I   I268      1.0  0.50667  0.62297  0.41025  1.0000
  I   I269      1.0  0.79966  0.37391  0.41274  1.0000
  I   I270      1.0  0.85420  0.49378  0.56737  1.0000
  I   I271      1.0  0.65584  0.47177  0.10584  1.0000
  I   I272      1.0  0.94706  0.10273  0.44495  1.0000
  I   I273      1.0  0.93875  0.26743  0.83535  1.0000
  I   I274      1.0  0.92134  0.78702  0.23574  1.0000
  I   I275      1.0  0.74164  0.58120  0.82739  1.0000
  I   I276      1.0  0.06294  0.58172  0.70310  1.0000
  I   I277      1.0  0.71786  0.24442  0.28121  1.0000
  I   I278      1.0  0.60188  0.27230  0.43629  1.0000
  I   I279      1.0  0.31284  0.80710  0.37314  1.0000
  I   I280      1.0  0.32665  0.88806  0.97361  1.0000
  I   I281      1.0  0.57683  0.34016  0.68532  1.0000
  I   I282      1.0  0.46105  0.72110  0.21060  1.0000
  I   I283      1.0  0.85351  0.20742  0.97878  1.0000
  I   I284      1.0  0.86112  0.60270  0.31930  1.0000
  I   I285      1.0  0.10946  0.41858  0.25148  1.0000
  I   I286      1.0  0.59038  0.12295  0.57026  1.0000
  I   I287      1.0  0.43581  0.23013  0.31130  1.0000
  I   I288      1.0  0.54657  0.33689  0.92357  1.0000
  I   I289      1.0  0.87380  0.60963  0.11033  1.0000
  I   I290      1.0  0.75066  0.93249  0.14398  1.0000
  I   I291      1.0  0.92695  0.83954  0.04843  1.0000
  I   I292      1.0  0.34901  0.09122  0.33784  1.0000
  I   I293      1.0  0.15962  0.05411  0.87604  1.0000
  I   I294      1.0  0.21373  0.07078  0.39529  1.0000
  I   I295      1.0  0.02010  0.75558  0.77345  1.0000
  I   I296      1.0  0.14223  0.90105  0.47759  1.0000
  I   I297      1.0  0.77445  0.01378  0.68260  1.0000
  I   I298      1.0  0.07926  0.97611  0.20204  1.0000
  I   I299      1.0  0.46707  0.88445  0.09542  1.0000
  I   I300      1.0  0.84456  0.71808  0.80360  1.0000
  I   I301      1.0  0.26256  0.03964  0.01682  1.0000
  I   I302      1.0  0.42077  0.28117  0.72616  1.0000
  I   I303      1.0  0.25576  0.41665  0.35978  1.0000
  I   I304      1.0  0.09669  0.33864  0.05640  1.0000
  I   I305      1.0  0.16507  0.74607  0.32763  1.0000
  I   I306      1.0  0.30846  0.73531  0.70951  1.0000
  I   I307      1.0  0.61255  0.67580  0.37575  1.0000
  I   I308      1.0  0.72319  0.90181  0.27320  1.0000
  I   I309      1.0  0.35855  0.45465  0.94239  1.0000
  I   I310      1.0  0.51005  0.98669  0.53143  1.0000
  I   I311      1.0  0.67075  0.82972  0.95957  1.0000
  I   I312      1.0  0.47626  0.83198  0.78546  1.0000
  I   I313      1.0  0.18701  0.50547  0.50284  1.0000
  I   I314      1.0  0.32262  0.15769  0.56561  1.0000
  I   I315      1.0  0.14784  0.32726  0.77483  1.0000
  I   I316      1.0  0.89083  0.50689  0.67413  1.0000
  I   I317      1.0  0.45805  0.60371  0.53289  1.0000
  I   I318      1.0  0.70867  0.51313  0.62047  1.0000
  I   I319      1.0  0.90082  0.36457  0.74626  1.0000
  I   I320      1.0  0.59750  0.53306  0.11567  1.0000
  I   I321      1.0  0.88599  0.13197  0.31969  1.0000
  I   I322      1.0  0.06370  0.71706  0.25117  1.0000
  I   I323      1.0  0.70503  0.63614  0.73211  1.0000
  I   I324      1.0  0.00332  0.54745  0.57588  1.0000
  I   I325      1.0  0.67209  0.31522  0.12754  1.0000
  I   I326      1.0  0.54823  0.32539  0.28185  1.0000
  I   I327      1.0  0.31960  0.81712  0.24461  1.0000
  I   I328      1.0  0.39553  0.88052  0.93189  1.0000
  I   I329      1.0  0.66146  0.40282  0.65171  1.0000
  I   I330      1.0  0.53483  0.68705  0.06599  1.0000
  I   I331      1.0  0.02801  0.53228  0.12352  1.0000
  I   I332      1.0  0.90671  0.12518  0.89320  1.0000
  I   I333      1.0  0.95022  0.47475  0.44353  1.0000
  I   I334      1.0  0.46299  0.37318  0.89382  1.0000
  I   I335      1.0  0.59084  0.05517  0.61108  1.0000
  I   I336      1.0  0.36549  0.24136  0.33052  1.0000
  I   I337      1.0  0.94395  0.59142  0.16402  1.0000
  I   I338      1.0  0.81384  0.89618  0.22259  1.0000
  I   I339      1.0  0.96161  0.89688  0.10521  1.0000
  I   I340      1.0  0.30023  0.06928  0.45483  1.0000
  I   I341      1.0  0.00985  0.07949  0.97860  1.0000
  I   I342      1.0  0.16449  0.04536  0.41561  1.0000
  I   I343      1.0  0.98816  0.75590  0.63847  1.0000
  I   I344      1.0  0.04796  0.98255  0.46086  1.0000
  I   I345      1.0  0.69307  0.06089  0.64581  1.0000
  I   I346      1.0  0.13494  0.00603  0.17432  1.0000
  I   I347      1.0  0.39516  0.94825  0.11849  1.0000
  I   I348      1.0  0.86093  0.77255  0.85736  1.0000
  I   I349      1.0  0.29767  0.06082  0.11662  1.0000
  I   I350      1.0  0.39116  0.25134  0.85001  1.0000
  I   I351      1.0  0.20853  0.34232  0.24501  1.0000
  I   I352      1.0  0.07744  0.32444  0.19936  1.0000
  I   I353      1.0  0.13831  0.82554  0.28795  1.0000
  I   I354      1.0  0.24469  0.78303  0.62604  1.0000
  I   I355      1.0  0.72394  0.64950  0.23057  1.0000
  I   I356      1.0  0.72010  0.87833  0.42506  1.0000
  I   I357      1.0  0.34370  0.38069  0.05442  1.0000
  I   I358      1.0  0.53019  0.93288  0.43530  1.0000
  I   I359      1.0  0.65460  0.77168  0.98142  1.0000
  I   I360      1.0  0.47588  0.90334  0.72868  1.0000
  I   I361      1.0  0.13498  0.58317  0.47135  1.0000
  I   I362      1.0  0.34240  0.09201  0.63074  1.0000
  I   I363      1.0  0.08807  0.35376  0.66248  1.0000
  I   I364      1.0  0.82658  0.57759  0.67882  1.0000
  I   I365      1.0  0.57199  0.61243  0.40805  1.0000
  I   I366      1.0  0.70353  0.49554  0.49357  1.0000
  I   I367      1.0  0.96552  0.32559  0.82446  1.0000
  I   I368      1.0  0.59972  0.48665  0.22594  1.0000
  I   I369      1.0  0.96150  0.04791  0.29915  1.0000
  I   I370      1.0  0.05251  0.65129  0.25792  1.0000
  I   I371      1.0  0.66389  0.66682  0.84658  1.0000
  I   I372      1.0  0.04459  0.58518  0.57012  1.0000
  I   I373      1.0  0.78440  0.21179  0.26638  1.0000
  I   I374      1.0  0.52994  0.37915  0.43604  1.0000
  I   I375      1.0  0.24412  0.84130  0.26527  1.0000
  I   I376      1.0  0.37763  0.81742  0.99092  1.0000
  I   I377      1.0  0.53438  0.40959  0.67234  1.0000
  I   I378      1.0  0.45823  0.75009  0.07826  1.0000
  I   I379      1.0  0.06752  0.45175  0.06898  1.0000
  I   I380      1.0  0.79883  0.22845  0.48669  1.0000
  I   I381      1.0  0.97031  0.53880  0.44082  1.0000
  I   I382      1.0  0.48487  0.34694  0.02231  1.0000
  I   I383      1.0  0.51554  0.11947  0.64480  1.0000
  I   I384      1.0  0.42728  0.16662  0.31752  1.0000
