data_image0
_chemical_formula_structural       Ti96I384
_chemical_formula_sum              "Ti96 I384"
_cell_length_a       62.2088
_cell_length_b       62.068
_cell_length_c       30.2712
_cell_angle_alpha    88.7757
_cell_angle_beta     88.7757
_cell_angle_gamma    62.1586

_space_group_name_H-M_alt    "P 1"
_space_group_IT_number       1

loop_
  _space_group_symop_operation_xyz
  'x, y, z'

loop_
  _atom_site_type_symbol
  _atom_site_label
  _atom_site_symmetry_multiplicity
  _atom_site_fract_x
  _atom_site_fract_y
  _atom_site_fract_z
  _atom_site_occupancy
  Ti  Ti1       1.0  0.61444  0.98301  0.66577  1.0000
  Ti  Ti2       1.0  0.42279  0.20091  0.32341  1.0000
  Ti  Ti3       1.0  0.03350  0.52364  0.14877  1.0000
  Ti  Ti4       1.0  0.47001  0.44417  0.77805  1.0000
  Ti  Ti5       1.0  0.21244  0.74604  0.05607  1.0000
  Ti  Ti6       1.0  0.51689  0.07453  0.77951  1.0000
  Ti  Ti7       1.0  0.02740  0.92439  0.56824  1.0000
  Ti  Ti8       1.0  0.19392  0.57347  0.30105  1.0000
  Ti  Ti9       1.0  0.16850  0.96944  0.86513  1.0000
  Ti  Ti10      1.0  0.04815  0.82220  0.76816  1.0000
  Ti  Ti11      1.0  0.34570  0.52369  0.11943  1.0000
  Ti  Ti12      1.0  0.15956  0.73681  0.52084  1.0000
  Ti  Ti13      1.0  0.39652  0.33864  0.31575  1.0000
  Ti  Ti14      1.0  0.10514  0.99095  0.45862  1.0000
  Ti  Ti15      1.0  0.43433  0.82909  0.05489  1.0000
  Ti  Ti16      1.0  0.98172  0.55994  0.87284  1.0000
  Ti  Ti17      1.0  0.13226  0.25710  0.23833  1.0000
  Ti  Ti18      1.0  0.75124  0.58732  0.65573  1.0000
  Ti  Ti19      1.0  0.90576  0.93262  0.39061  1.0000
  Ti  Ti20      1.0  0.27594  0.15765  0.64501  1.0000
  Ti  Ti21      1.0  0.76851  0.29122  0.19857  1.0000
  Ti  Ti22      1.0  0.59906  0.78244  0.23376  1.0000
  Ti  Ti23      1.0  0.66921  0.81638  0.01596  1.0000
  Ti  Ti24      1.0  0.25338  0.78278  0.60848  1.0000
  Ti  Ti25      1.0  0.30957  0.29722  0.72806  1.0000
  Ti  Ti26      1.0  0.00317  0.24937  0.32220  1.0000
  Ti  Ti27      1.0  0.11552  0.59998  0.81520  1.0000
  Ti  Ti28      1.0  0.66338  0.51773  0.21283  1.0000
  Ti  Ti29      1.0  0.02425  0.99961  0.15730  1.0000
  Ti  Ti30      1.0  0.90306  0.46983  0.29402  1.0000
  Ti  Ti31      1.0  0.63288  0.37873  0.58069  1.0000
  Ti  Ti32      1.0  0.72710  0.06813  0.93121  1.0000
  Ti  Ti33      1.0  0.33064  0.86488  0.31591  1.0000
  Ti  Ti34      1.0  0.63652  0.82750  0.66857  1.0000
  Ti  Ti35      1.0  0.84231  0.34017  0.97100  1.0000
  Ti  Ti36      1.0  0.08635  0.53151  0.43348  1.0000
  Ti  Ti37      1.0  0.09659  0.20706  0.81142  1.0000
  Ti  Ti38      1.0  0.40808  0.34156  0.63975  1.0000
  Ti  Ti39      1.0  0.39841  0.26794  0.13244  1.0000
  Ti  Ti40      1.0  0.72935  0.75292  0.44692  1.0000
  Ti  Ti41      1.0  0.44837  0.67722  0.45065  1.0000
  Ti  Ti42      1.0  0.82006  0.93196  0.70377  1.0000
  Ti  Ti43      1.0  0.33362  0.09244  0.92955  1.0000
  Ti  Ti44      1.0  0.81834  0.61552  0.28740  1.0000
  Ti  Ti45      1.0  0.42897  0.70739  0.79194  1.0000
  Ti  Ti46      1.0  0.20479  0.07933  0.99699  1.0000
  Ti  Ti47      1.0  0.86111  0.19548  0.96094  1.0000
  Ti  Ti48      1.0  0.44081  0.54377  0.32324  1.0000
  Ti  Ti49      1.0  0.62762  0.94902  0.55244  1.0000
  Ti  Ti50      1.0  0.74664  0.21596  0.65740  1.0000
  Ti  Ti51      1.0  0.46008  0.19717  0.43851  1.0000
  Ti  Ti52      1.0  0.44369  0.45534  0.66742  1.0000
  Ti  Ti53      1.0  0.14382  0.78841  0.07383  1.0000
  Ti  Ti54      1.0  0.46217  0.10652  0.67079  1.0000
  Ti  Ti55      1.0  0.05869  0.88350  0.48064  1.0000
  Ti  Ti56      1.0  0.21640  0.56910  0.39289  1.0000
  Ti  Ti57      1.0  0.22076  0.92584  0.84562  1.0000
  Ti  Ti58      1.0  0.31730  0.15024  0.98796  1.0000
  Ti  Ti59      1.0  0.04337  0.79101  0.88881  1.0000
  Ti  Ti60      1.0  0.18473  0.71053  0.64749  1.0000
  Ti  Ti61      1.0  0.38825  0.81449  0.99390  1.0000
  Ti  Ti62      1.0  0.34635  0.35997  0.39870  1.0000
  Ti  Ti63      1.0  0.16263  0.96171  0.41566  1.0000
  Ti  Ti64      1.0  0.82057  0.55781  0.60492  1.0000
  Ti  Ti65      1.0  0.02886  0.55262  0.81337  1.0000
  Ti  Ti66      1.0  0.47124  0.27280  0.84878  1.0000
  Ti  Ti67      1.0  0.88116  0.99439  0.44786  1.0000
  Ti  Ti68      1.0  0.28536  0.18866  0.58988  1.0000
  Ti  Ti69      1.0  0.74574  0.27981  0.30994  1.0000
  Ti  Ti70      1.0  0.65082  0.71820  0.17119  1.0000
  Ti  Ti71      1.0  0.67308  0.87147  0.03783  1.0000
  Ti  Ti72      1.0  0.93777  0.92169  0.06743  1.0000
  Ti  Ti73      1.0  0.18366  0.55629  0.79424  1.0000
  Ti  Ti74      1.0  0.24699  0.37803  0.74665  1.0000
  Ti  Ti75      1.0  0.00967  0.18293  0.26685  1.0000
  Ti  Ti76      1.0  0.91655  0.38013  0.26735  1.0000
  Ti  Ti77      1.0  0.71809  0.48810  0.19826  1.0000
  Ti  Ti78      1.0  0.97728  0.05953  0.21622  1.0000
  Ti  Ti79      1.0  0.27887  0.89292  0.26037  1.0000
  Ti  Ti80      1.0  0.72887  0.30853  0.56347  1.0000
  Ti  Ti81      1.0  0.69500  0.09341  0.07565  1.0000
  Ti  Ti82      1.0  0.67943  0.75936  0.69821  1.0000
  Ti  Ti83      1.0  0.83287  0.33958  0.84859  1.0000
  Ti  Ti84      1.0  0.12539  0.49155  0.48101  1.0000
  Ti  Ti85      1.0  0.06375  0.24473  0.88340  1.0000
  Ti  Ti86      1.0  0.44363  0.32930  0.74498  1.0000
  Ti  Ti87      1.0  0.43810  0.28732  0.12441  1.0000
  Ti  Ti88      1.0  0.77250  0.75877  0.42955  1.0000
  Ti  Ti89      1.0  0.50045  0.68492  0.52144  1.0000
  Ti  Ti90      1.0  0.78895  0.90301  0.69867  1.0000
  Ti  Ti91      1.0  0.38034  0.69917  0.69916  1.0000
  Ti  Ti92      1.0  0.86428  0.22072  0.56732  1.0000
  Ti  Ti93      1.0  0.81713  0.58639  0.21279  1.0000
  Ti  Ti94      1.0  0.42106  0.51168  0.23496  1.0000
  Ti  Ti95      1.0  0.22636  0.01394  0.06289  1.0000
  Ti  Ti96      1.0  0.83321  0.14041  0.93367  1.0000
  I   I1        1.0  0.81900  0.11483  0.97287  1.0000
  I   I2        1.0  0.44575  0.22052  0.51008  1.0000
  I   I3        1.0  0.60135  0.99591  0.57463  1.0000
  I   I4        1.0  0.13818  0.75310  0.11444  1.0000
  I   I5        1.0  0.48945  0.11026  0.84008  1.0000
  I   I6        1.0  0.47685  0.06985  0.73880  1.0000
  I   I7        1.0  0.20280  0.57669  0.47972  1.0000
  I   I8        1.0  0.22028  0.61088  0.38103  1.0000
  I   I9        1.0  0.20899  0.89633  0.80627  1.0000
  I   I10       1.0  0.06669  0.85175  0.73468  1.0000
  I   I11       1.0  0.33973  0.56956  0.13337  1.0000
  I   I12       1.0  0.22502  0.74515  0.96912  1.0000
  I   I13       1.0  0.36004  0.39400  0.37891  1.0000
  I   I14       1.0  0.20660  0.93493  0.45533  1.0000
  I   I15       1.0  0.39325  0.82197  0.07830  1.0000
  I   I16       1.0  0.96238  0.53042  0.87261  1.0000
  I   I17       1.0  0.45867  0.25599  0.91856  1.0000
  I   I18       1.0  0.77541  0.57091  0.57816  1.0000
  I   I19       1.0  0.26108  0.20505  0.67223  1.0000
  I   I20       1.0  0.38876  0.48712  0.09552  1.0000
  I   I21       1.0  0.71853  0.26742  0.26220  1.0000
  I   I22       1.0  0.64673  0.91723  0.00396  1.0000
  I   I23       1.0  0.67987  0.83213  0.08773  1.0000
  I   I24       1.0  0.65225  0.75309  0.23342  1.0000
  I   I25       1.0  0.23249  0.40911  0.81374  1.0000
  I   I26       1.0  0.00160  0.28776  0.27985  1.0000
  I   I27       1.0  0.15636  0.57444  0.87338  1.0000
  I   I28       1.0  0.75068  0.49134  0.24744  1.0000
  I   I29       1.0  0.99290  0.01338  0.24248  1.0000
  I   I30       1.0  0.89960  0.35210  0.30391  1.0000
  I   I31       1.0  0.75649  0.26935  0.52190  1.0000
  I   I32       1.0  0.69322  0.13331  0.05049  1.0000
  I   I33       1.0  0.32068  0.89885  0.23613  1.0000
  I   I34       1.0  0.82617  0.38407  0.84296  1.0000
  I   I35       1.0  0.13286  0.52408  0.51433  1.0000
  I   I36       1.0  0.60970  0.86400  0.71343  1.0000
  I   I37       1.0  0.12963  0.20298  0.75640  1.0000
  I   I38       1.0  0.42617  0.26721  0.05530  1.0000
  I   I39       1.0  0.04467  0.21814  0.86037  1.0000
  I   I40       1.0  0.46595  0.71607  0.56608  1.0000
  I   I41       1.0  0.82646  0.86741  0.73689  1.0000
  I   I42       1.0  0.80891  0.74225  0.48843  1.0000
  I   I43       1.0  0.27398  0.18184  0.00904  1.0000
  I   I44       1.0  0.78331  0.63017  0.20908  1.0000
  I   I45       1.0  0.37604  0.73339  0.76926  1.0000
  I   I46       1.0  0.23381  0.09033  0.95641  1.0000
  I   I47       1.0  0.85485  0.16702  0.89360  1.0000
  I   I48       1.0  0.47036  0.50244  0.27227  1.0000
  I   I49       1.0  0.65442  0.94037  0.47738  1.0000
  I   I50       1.0  0.43604  0.20009  0.24021  1.0000
  I   I51       1.0  0.37778  0.21972  0.31480  1.0000
  I   I52       1.0  0.46662  0.45428  0.86472  1.0000
  I   I53       1.0  0.12060  0.79610  0.99862  1.0000
  I   I54       1.0  0.45833  0.12814  0.59121  1.0000
  I   I55       1.0  0.04377  0.93773  0.63965  1.0000
  I   I56       1.0  0.24291  0.55808  0.31611  1.0000
  I   I57       1.0  0.18862  0.93224  0.92800  1.0000
  I   I58       1.0  0.07116  0.79094  0.70879  1.0000
  I   I59       1.0  0.00648  0.85944  0.78043  1.0000
  I   I60       1.0  0.19314  0.68797  0.52903  1.0000
  I   I61       1.0  0.34110  0.34234  0.32088  1.0000
  I   I62       1.0  0.34774  0.36021  0.48935  1.0000
  I   I63       1.0  0.08199  0.99774  0.53893  1.0000
  I   I64       1.0  0.00535  0.59210  0.86160  1.0000
  I   I65       1.0  0.07534  0.51713  0.81315  1.0000
  I   I66       1.0  0.51462  0.26361  0.87172  1.0000
  I   I67       1.0  0.87569  0.03244  0.39823  1.0000
  I   I68       1.0  0.30593  0.11374  0.62460  1.0000
  I   I69       1.0  0.78231  0.25226  0.14381  1.0000
  I   I70       1.0  0.66874  0.66922  0.17114  1.0000
  I   I71       1.0  0.71148  0.77529  0.99557  1.0000
  I   I72       1.0  0.91437  0.96104  0.02421  1.0000
  I   I73       1.0  0.07664  0.60677  0.84961  1.0000
  I   I74       1.0  0.98395  0.24023  0.24858  1.0000
  I   I75       1.0  0.04270  0.19832  0.30396  1.0000
  I   I76       1.0  0.69613  0.47547  0.27581  1.0000
  I   I77       1.0  0.70235  0.52991  0.15884  1.0000
  I   I78       1.0  0.04152  0.00193  0.07999  1.0000
  I   I79       1.0  0.24149  0.93294  0.27409  1.0000
  I   I80       1.0  0.67185  0.35505  0.62351  1.0000
  I   I81       1.0  0.77156  0.03663  0.90655  1.0000
  I   I82       1.0  0.66101  0.79657  0.75781  1.0000
  I   I83       1.0  0.86911  0.30888  0.80161  1.0000
  I   I84       1.0  0.05972  0.52328  0.37783  1.0000
  I   I85       1.0  0.11191  0.24047  0.86615  1.0000
  I   I86       1.0  0.38975  0.35866  0.73291  1.0000
  I   I87       1.0  0.43666  0.25273  0.18511  1.0000
  I   I88       1.0  0.68479  0.77199  0.48541  1.0000
  I   I89       1.0  0.43983  0.68145  0.36782  1.0000
  I   I90       1.0  0.80210  0.95853  0.77552  1.0000
  I   I91       1.0  0.42833  0.69949  0.70448  1.0000
  I   I92       1.0  0.84223  0.20102  0.61082  1.0000
  I   I93       1.0  0.83858  0.57416  0.13253  1.0000
  I   I94       1.0  0.45735  0.51434  0.39251  1.0000
  I   I95       1.0  0.24833  0.99753  0.13673  1.0000
  I   I96       1.0  0.86767  0.10540  0.89201  1.0000
  I   I97       1.0  0.03444  0.52186  0.23168  1.0000
  I   I98       1.0  0.65411  0.96001  0.62077  1.0000
  I   I99       1.0  0.43971  0.15499  0.34774  1.0000
  I   I100      1.0  0.41642  0.45113  0.73690  1.0000
  I   I101      1.0  0.47735  0.39952  0.78057  1.0000
  I   I102      1.0  0.24033  0.75424  0.11301  1.0000
  I   I103      1.0  0.98449  0.94568  0.59500  1.0000
  I   I104      1.0  0.01011  0.92846  0.48755  1.0000
  I   I105      1.0  0.15035  0.01901  0.83777  1.0000
  I   I106      1.0  0.16616  0.68113  0.64331  1.0000
  I   I107      1.0  0.01544  0.80095  0.81353  1.0000
  I   I108      1.0  0.20059  0.73552  0.59028  1.0000
  I   I109      1.0  0.37264  0.78075  0.00062  1.0000
  I   I110      1.0  0.41135  0.30069  0.26784  1.0000
  I   I111      1.0  0.06651  0.98972  0.43110  1.0000
  I   I112      1.0  0.83592  0.53252  0.52585  1.0000
  I   I113      1.0  0.03902  0.57283  0.74125  1.0000
  I   I114      1.0  0.09657  0.25245  0.20953  1.0000
  I   I115      1.0  0.87103  0.97136  0.35893  1.0000
  I   I116      1.0  0.89506  0.00265  0.52354  1.0000
  I   I117      1.0  0.28343  0.16709  0.52037  1.0000
  I   I118      1.0  0.63418  0.72177  0.09030  1.0000
  I   I119      1.0  0.59682  0.79945  0.31104  1.0000
  I   I120      1.0  0.91791  0.92225  0.14488  1.0000
  I   I121      1.0  0.21898  0.51462  0.80598  1.0000
  I   I122      1.0  0.28510  0.34063  0.79588  1.0000
  I   I123      1.0  0.96231  0.27228  0.36433  1.0000
  I   I124      1.0  0.92000  0.49389  0.24210  1.0000
  I   I125      1.0  0.63895  0.54515  0.14312  1.0000
  I   I126      1.0  0.99543  0.07211  0.28396  1.0000
  I   I127      1.0  0.29860  0.91194  0.34861  1.0000
  I   I128      1.0  0.60011  0.37018  0.62234  1.0000
  I   I129      1.0  0.73160  0.04873  0.03977  1.0000
  I   I130      1.0  0.05906  0.54645  0.50243  1.0000
  I   I131      1.0  0.61584  0.84848  0.59340  1.0000
  I   I132      1.0  0.79811  0.36407  0.93193  1.0000
  I   I133      1.0  0.38115  0.31448  0.10118  1.0000
  I   I134      1.0  0.37777  0.38456  0.60984  1.0000
  I   I135      1.0  0.42877  0.30073  0.69516  1.0000
  I   I136      1.0  0.82691  0.96654  0.66460  1.0000
  I   I137      1.0  0.72451  0.78710  0.37306  1.0000
  I   I138      1.0  0.44000  0.63622  0.45761  1.0000
  I   I139      1.0  0.40631  0.71291  0.86872  1.0000
  I   I140      1.0  0.87765  0.24033  0.62518  1.0000
  I   I141      1.0  0.77726  0.64013  0.34230  1.0000
  I   I142      1.0  0.43785  0.46661  0.27452  1.0000
  I   I143      1.0  0.23210  0.97274  0.04470  1.0000
  I   I144      1.0  0.88076  0.18403  0.03708  1.0000
  I   I145      1.0  0.65475  0.90541  0.58193  1.0000
  I   I146      1.0  0.41159  0.20274  0.41901  1.0000
  I   I147      1.0  0.99353  0.53105  0.11203  1.0000
  I   I148      1.0  0.44669  0.41522  0.64793  1.0000
  I   I149      1.0  0.18718  0.79581  0.03652  1.0000
  I   I150      1.0  0.51484  0.08825  0.68953  1.0000
  I   I151      1.0  0.06547  0.88785  0.39591  1.0000
  I   I152      1.0  0.16912  0.58739  0.38397  1.0000
  I   I153      1.0  0.17481  0.96451  0.77269  1.0000
  I   I154      1.0  0.29893  0.12002  0.99814  1.0000
  I   I155      1.0  0.31078  0.52584  0.16910  1.0000
  I   I156      1.0  0.14016  0.74804  0.60357  1.0000
  I   I157      1.0  0.41928  0.87059  0.10021  1.0000
  I   I158      1.0  0.17746  0.98898  0.36429  1.0000
  I   I159      1.0  0.41998  0.84078  0.97143  1.0000
  I   I160      1.0  0.81014  0.59816  0.55418  1.0000
  I   I161      1.0  0.11411  0.30426  0.23031  1.0000
  I   I162      1.0  0.74642  0.54869  0.68895  1.0000
  I   I163      1.0  0.83915  0.02025  0.48695  1.0000
  I   I164      1.0  0.24069  0.22107  0.57032  1.0000
  I   I165      1.0  0.75817  0.24558  0.36815  1.0000
  I   I166      1.0  0.60514  0.81027  0.17316  1.0000
  I   I167      1.0  0.67173  0.82728  0.92904  1.0000
  I   I168      1.0  0.20721  0.80768  0.59968  1.0000
  I   I169      1.0  0.27354  0.33873  0.68894  1.0000
  I   I170      1.0  0.35286  0.29750  0.74125  1.0000
  I   I171      1.0  0.14523  0.54454  0.78270  1.0000
  I   I172      1.0  0.87542  0.46241  0.24183  1.0000
  I   I173      1.0  0.96231  0.09174  0.14476  1.0000
  I   I174      1.0  0.94243  0.42841  0.28484  1.0000
  I   I175      1.0  0.63243  0.38518  0.49770  1.0000
  I   I176      1.0  0.65231  0.09903  0.09873  1.0000
  I   I177      1.0  0.26909  0.88078  0.18742  1.0000
  I   I178      1.0  0.67721  0.73617  0.62216  1.0000
  I   I179      1.0  0.86992  0.29892  0.01748  1.0000
  I   I180      1.0  0.16879  0.45191  0.47629  1.0000
  I   I181      1.0  0.07428  0.19815  0.75071  1.0000
  I   I182      1.0  0.42667  0.31400  0.83078  1.0000
  I   I183      1.0  0.36823  0.27346  0.19869  1.0000
  I   I184      1.0  0.73977  0.79039  0.48265  1.0000
  I   I185      1.0  0.49145  0.68009  0.42182  1.0000
  I   I186      1.0  0.76113  0.92805  0.76748  1.0000
  I   I187      1.0  0.90512  0.18708  0.53638  1.0000
  I   I188      1.0  0.85661  0.56698  0.28096  1.0000
  I   I189      1.0  0.46525  0.66635  0.81625  1.0000
  I   I190      1.0  0.16680  0.11674  0.03189  1.0000
  I   I191      1.0  0.77024  0.19976  0.57671  1.0000
  I   I192      1.0  0.43530  0.56740  0.24999  1.0000
  I   I193      1.0  0.59204  0.94962  0.50354  1.0000
  I   I194      1.0  0.71351  0.20425  0.67765  1.0000
  I   I195      1.0  0.06140  0.54204  0.11635  1.0000
  I   I196      1.0  0.51751  0.43025  0.75443  1.0000
  I   I197      1.0  0.35065  0.04545  0.91070  1.0000
  I   I198      1.0  0.44875  0.14376  0.72544  1.0000
  I   I199      1.0  0.09608  0.84097  0.46949  1.0000
  I   I200      1.0  0.25083  0.53371  0.44272  1.0000
  I   I201      1.0  0.12708  0.97719  0.90736  1.0000
  I   I202      1.0  0.05969  0.80276  0.96477  1.0000
  I   I203      1.0  0.79937  0.30509  0.16734  1.0000
  I   I204      1.0  0.17600  0.76341  0.48176  1.0000
  I   I205      1.0  0.29797  0.38606  0.39066  1.0000
  I   I206      1.0  0.12169  0.98512  0.36667  1.0000
  I   I207      1.0  0.35592  0.84158  0.94581  1.0000
  I   I208      1.0  0.94897  0.59330  0.82042  1.0000
  I   I209      1.0  0.16111  0.23497  0.17292  1.0000
  I   I210      1.0  0.70961  0.62168  0.62813  1.0000
  I   I211      1.0  0.88334  0.95317  0.47747  1.0000
  I   I212      1.0  0.23459  0.15348  0.61787  1.0000
  I   I213      1.0  0.74517  0.32353  0.27608  1.0000
  I   I214      1.0  0.60279  0.73879  0.19193  1.0000
  I   I215      1.0  0.63319  0.80496  0.02151  1.0000
  I   I216      1.0  0.26253  0.81539  0.64074  1.0000
  I   I217      1.0  0.31670  0.27349  0.65654  1.0000
  I   I218      1.0  0.97101  0.18508  0.29591  1.0000
  I   I219      1.0  0.17830  0.56959  0.70579  1.0000
  I   I220      1.0  0.62803  0.50858  0.24234  1.0000
  I   I221      1.0  0.06165  0.96814  0.19935  1.0000
  I   I222      1.0  0.87974  0.48547  0.36780  1.0000
  I   I223      1.0  0.62489  0.42198  0.61008  1.0000
  I   I224      1.0  0.68269  0.08916  0.98053  1.0000
  I   I225      1.0  0.32339  0.84263  0.24953  1.0000
  I   I226      1.0  0.72419  0.72890  0.71706  1.0000
  I   I227      1.0  0.87150  0.36083  0.93916  1.0000
  I   I228      1.0  0.13690  0.50187  0.39240  1.0000
  I   I229      1.0  0.09154  0.21887  0.96028  1.0000
  I   I230      1.0  0.43928  0.32783  0.57436  1.0000
  I   I231      1.0  0.43600  0.32385  0.07600  1.0000
  I   I232      1.0  0.72307  0.71418  0.43259  1.0000
  I   I233      1.0  0.41983  0.72705  0.45798  1.0000
  I   I234      1.0  0.81290  0.90196  0.62145  1.0000
  I   I235      1.0  0.36493  0.10291  0.99327  1.0000
  I   I236      1.0  0.79545  0.58800  0.30372  1.0000
  I   I237      1.0  0.44673  0.74161  0.79259  1.0000
  I   I238      1.0  0.22700  0.05844  0.07972  1.0000
  I   I239      1.0  0.83284  0.16847  0.99746  1.0000
  I   I240      1.0  0.37587  0.51776  0.20284  1.0000
  I   I241      1.0  0.57776  0.96993  0.67851  1.0000
  I   I242      1.0  0.43714  0.23039  0.36933  1.0000
  I   I243      1.0  0.05482  0.47680  0.12469  1.0000
  I   I244      1.0  0.45111  0.48649  0.72550  1.0000
  I   I245      1.0  0.11566  0.82629  0.11703  1.0000
  I   I246      1.0  0.54173  0.03706  0.83300  1.0000
  I   I247      1.0  0.03730  0.87756  0.56304  1.0000
  I   I248      1.0  0.15737  0.61952  0.26888  1.0000
  I   I249      1.0  0.25560  0.89578  0.90973  1.0000
  I   I250      1.0  0.07457  0.74579  0.89006  1.0000
  I   I251      1.0  0.32635  0.53102  0.04238  1.0000
  I   I252      1.0  0.22567  0.67539  0.66802  1.0000
  I   I253      1.0  0.38860  0.36990  0.25011  1.0000
  I   I254      1.0  0.13427  0.94042  0.46535  1.0000
  I   I255      1.0  0.46297  0.78029  0.07694  1.0000
  I   I256      1.0  0.02590  0.53028  0.89938  1.0000
  I   I257      1.0  0.16402  0.24250  0.30983  1.0000
  I   I258      1.0  0.86691  0.54438  0.62053  1.0000
  I   I259      1.0  0.93319  0.90783  0.32192  1.0000
  I   I260      1.0  0.29930  0.22321  0.56192  1.0000
  I   I261      1.0  0.72949  0.31763  0.15497  1.0000
  I   I262      1.0  0.55285  0.79466  0.22385  1.0000
  I   I263      1.0  0.63182  0.86651  0.01965  1.0000
  I   I264      1.0  0.27167  0.78020  0.53287  1.0000
  I   I265      1.0  0.21276  0.36694  0.74997  1.0000
  I   I266      1.0  0.01456  0.17183  0.18198  1.0000
  I   I267      1.0  0.11071  0.59531  0.72736  1.0000
  I   I268      1.0  0.68601  0.47456  0.15980  1.0000
  I   I269      1.0  0.92837  0.09132  0.23887  1.0000
  I   I270      1.0  0.96006  0.35704  0.24149  1.0000
  I   I271      1.0  0.68630  0.31285  0.53446  1.0000
  I   I272      1.0  0.73545  0.10559  0.92412  1.0000
  I   I273      1.0  0.36726  0.87732  0.32587  1.0000
  I   I274      1.0  0.67949  0.79861  0.63047  1.0000
  I   I275      1.0  0.83699  0.36552  0.03774  1.0000
  I   I276      1.0  0.06970  0.58181  0.42351  1.0000
  I   I277      1.0  0.12200  0.18104  0.87878  1.0000
  I   I278      1.0  0.45132  0.34957  0.67267  1.0000
  I   I279      1.0  0.40191  0.22497  0.10055  1.0000
  I   I280      1.0  0.77891  0.72479  0.37426  1.0000
  I   I281      1.0  0.47358  0.65866  0.52533  1.0000
  I   I282      1.0  0.86029  0.90613  0.73984  1.0000
  I   I283      1.0  0.30044  0.10911  0.87188  1.0000
  I   I284      1.0  0.83920  0.63014  0.21384  1.0000
  I   I285      1.0  0.37285  0.67546  0.76386  1.0000
  I   I286      1.0  0.17760  0.07009  0.93969  1.0000
  I   I287      1.0  0.79942  0.16377  0.87083  1.0000
  I   I288      1.0  0.39674  0.54189  0.31035  1.0000
  I   I289      1.0  0.58439  0.02866  0.68892  1.0000
  I   I290      1.0  0.76373  0.20900  0.73388  1.0000
  I   I291      1.0  0.50394  0.18488  0.40537  1.0000
  I   I292      1.0  0.41117  0.48818  0.60630  1.0000
  I   I293      1.0  0.18189  0.76592  0.13430  1.0000
  I   I294      1.0  0.55306  0.08492  0.79261  1.0000
  I   I295      1.0  0.04219  0.95672  0.52973  1.0000
  I   I296      1.0  0.20952  0.52407  0.31589  1.0000
  I   I297      1.0  0.21103  0.97528  0.87843  1.0000
  I   I298      1.0  0.33507  0.14731  0.07006  1.0000
  I   I299      1.0  0.07897  0.80055  0.84296  1.0000
  I   I300      1.0  0.18305  0.73790  0.71537  1.0000
  I   I301      1.0  0.47502  0.83234  0.03314  1.0000
  I   I302      1.0  0.39097  0.31828  0.39397  1.0000
  I   I303      1.0  0.08279  0.03566  0.42581  1.0000
  I   I304      1.0  0.79928  0.56720  0.68605  1.0000
  I   I305      1.0  0.96459  0.59160  0.94353  1.0000
  I   I306      1.0  0.45562  0.34921  0.81306  1.0000
  I   I307      1.0  0.88796  0.90310  0.38981  1.0000
  I   I308      1.0  0.25864  0.15062  0.72361  1.0000
  I   I309      1.0  0.79044  0.25642  0.26113  1.0000
  I   I310      1.0  0.68605  0.72543  0.13805  1.0000
  I   I311      1.0  0.67394  0.89397  0.10962  1.0000
  I   I312      1.0  0.92089  0.89342  0.03957  1.0000
  I   I313      1.0  0.21072  0.58000  0.79275  1.0000
  I   I314      1.0  0.29061  0.27241  0.76610  1.0000
  I   I315      1.0  0.03108  0.24984  0.37913  1.0000
  I   I316      1.0  0.89879  0.38533  0.18729  1.0000
  I   I317      1.0  0.68053  0.53400  0.27292  1.0000
  I   I318      1.0  0.02498  0.04223  0.18417  1.0000
  I   I319      1.0  0.35048  0.83082  0.37408  1.0000
  I   I320      1.0  0.74812  0.33637  0.53878  1.0000
  I   I321      1.0  0.70705  0.06284  0.86236  1.0000
  I   I322      1.0  0.62032  0.79347  0.67458  1.0000
  I   I323      1.0  0.83879  0.30189  0.90830  1.0000
  I   I324      1.0  0.11499  0.47263  0.55642  1.0000
  I   I325      1.0  0.03479  0.28570  0.92052  1.0000
  I   I326      1.0  0.48360  0.28661  0.75409  1.0000
  I   I327      1.0  0.48611  0.26061  0.10430  1.0000
  I   I328      1.0  0.75102  0.73183  0.52763  1.0000
  I   I329      1.0  0.52028  0.71151  0.49261  1.0000
  I   I330      1.0  0.76860  0.95459  0.66598  1.0000
  I   I331      1.0  0.34055  0.73352  0.66941  1.0000
  I   I332      1.0  0.37456  0.07913  0.88587  1.0000
  I   I333      1.0  0.82214  0.54150  0.21025  1.0000
  I   I334      1.0  0.43459  0.51595  0.15664  1.0000
  I   I335      1.0  0.24228  0.02418  0.97528  1.0000
  I   I336      1.0  0.89140  0.20576  0.91631  1.0000
  I   I337      1.0  0.63923  0.97029  0.73869  1.0000
  I   I338      1.0  0.72415  0.26538  0.65579  1.0000
  I   I339      1.0  0.46820  0.15595  0.48031  1.0000
  I   I340      1.0  0.49015  0.44123  0.63780  1.0000
  I   I341      1.0  0.20740  0.70739  0.04346  1.0000
  I   I342      1.0  0.41984  0.10826  0.67203  1.0000
  I   I343      1.0  0.09245  0.89503  0.50832  1.0000
  I   I344      1.0  0.19350  0.57955  0.21496  1.0000
  I   I345      1.0  0.25201  0.92986  0.79165  1.0000
  I   I346      1.0  0.31922  0.15610  0.90083  1.0000
  I   I347      1.0  0.00423  0.80886  0.93718  1.0000
  I   I348      1.0  0.11865  0.75239  0.48788  1.0000
  I   I349      1.0  0.42937  0.78002  0.96894  1.0000
  I   I350      1.0  0.43497  0.34007  0.33609  1.0000
  I   I351      1.0  0.15511  0.98752  0.49585  1.0000
  I   I352      1.0  0.74660  0.61503  0.72617  1.0000
  I   I353      1.0  0.01725  0.52196  0.76531  1.0000
  I   I354      1.0  0.47920  0.23629  0.80169  1.0000
  I   I355      1.0  0.93636  0.95303  0.42119  1.0000
  I   I356      1.0  0.32503  0.15463  0.63154  1.0000
  I   I357      1.0  0.72328  0.31168  0.38440  1.0000
  I   I358      1.0  0.27174  0.74072  0.64496  1.0000
  I   I359      1.0  0.71996  0.84822  0.01881  1.0000
  I   I360      1.0  0.98017  0.91645  0.08490  1.0000
  I   I361      1.0  0.10368  0.64554  0.80451  1.0000
  I   I362      1.0  0.23623  0.41156  0.68209  1.0000
  I   I363      1.0  0.03742  0.13683  0.29511  1.0000
  I   I364      1.0  0.90812  0.40846  0.33734  1.0000
  I   I365      1.0  0.75594  0.44467  0.16797  1.0000
  I   I366      1.0  0.00222  0.97374  0.14778  1.0000
  I   I367      1.0  0.28041  0.86632  0.33405  1.0000
  I   I368      1.0  0.73747  0.31854  0.64560  1.0000
  I   I369      1.0  0.72049  0.08943  0.15097  1.0000
  I   I370      1.0  0.67527  0.72374  0.73149  1.0000
  I   I371      1.0  0.79217  0.34889  0.81007  1.0000
  I   I372      1.0  0.09240  0.47979  0.44461  1.0000
  I   I373      1.0  0.06477  0.25989  0.79584  1.0000
  I   I374      1.0  0.38729  0.31677  0.61075  1.0000
  I   I375      1.0  0.44946  0.31189  0.18866  1.0000
  I   I376      1.0  0.78229  0.79070  0.38343  1.0000
  I   I377      1.0  0.53266  0.65603  0.57716  1.0000
  I   I378      1.0  0.75888  0.89370  0.65375  1.0000
  I   I379      1.0  0.39226  0.66457  0.64137  1.0000
  I   I380      1.0  0.84585  0.25024  0.49786  1.0000
  I   I381      1.0  0.82828  0.63823  0.34866  1.0000
  I   I382      1.0  0.42722  0.58687  0.36132  1.0000
  I   I383      1.0  0.17566  0.04254  0.06946  1.0000
  I   I384      1.0  0.81982  0.23772  0.97661  1.0000
