data_image0
_chemical_formula_structural       Ti96I384
_chemical_formula_sum              "Ti96 I384"
_cell_length_a       60.3826
_cell_length_b       60.5888
_cell_length_c       29.351
_cell_angle_alpha    88.7757
_cell_angle_beta     88.7757
_cell_angle_gamma    62.1586

_space_group_name_H-M_alt    "P 1"
_space_group_IT_number       1

loop_
  _space_group_symop_operation_xyz
  'x, y, z'

loop_
  _atom_site_type_symbol
  _atom_site_label
  _atom_site_symmetry_multiplicity
  _atom_site_fract_x
  _atom_site_fract_y
  _atom_site_fract_z
  _atom_site_occupancy
  Ti  Ti1       1.0  0.91506  0.86168  0.49987  1.0000
  Ti  Ti2       1.0  0.66836  0.05965  0.75317  1.0000
  Ti  Ti3       1.0  0.87028  0.78170  0.99130  1.0000
  Ti  Ti4       1.0  0.39175  0.49328  0.41817  1.0000
  Ti  Ti5       1.0  0.00858  0.80726  0.22357  1.0000
  Ti  Ti6       1.0  0.45049  0.01356  0.07688  1.0000
  Ti  Ti7       1.0  0.06891  0.90235  0.00651  1.0000
  Ti  Ti8       1.0  0.18572  0.61063  0.06984  1.0000
  Ti  Ti9       1.0  0.88775  0.12018  0.45065  1.0000
  Ti  Ti10      1.0  0.84562  0.00428  0.27433  1.0000
  Ti  Ti11      1.0  0.12193  0.58991  0.84625  1.0000
  Ti  Ti12      1.0  0.26208  0.68430  0.55018  1.0000
  Ti  Ti13      1.0  0.36789  0.28592  0.50247  1.0000
  Ti  Ti14      1.0  0.26834  0.10673  0.94689  1.0000
  Ti  Ti15      1.0  0.39001  0.81870  0.09098  1.0000
  Ti  Ti16      1.0  0.91927  0.26997  0.68393  1.0000
  Ti  Ti17      1.0  0.20336  0.34289  0.69755  1.0000
  Ti  Ti18      1.0  0.77040  0.60610  0.55405  1.0000
  Ti  Ti19      1.0  0.61800  0.98300  0.26072  1.0000
  Ti  Ti20      1.0  0.36765  0.14050  0.63652  1.0000
  Ti  Ti21      1.0  0.38332  0.41986  0.01826  1.0000
  Ti  Ti22      1.0  0.51726  0.97175  0.42773  1.0000
  Ti  Ti23      1.0  0.57030  0.81585  0.89340  1.0000
  Ti  Ti24      1.0  0.40672  0.01316  0.44055  1.0000
  Ti  Ti25      1.0  0.21804  0.22199  0.17625  1.0000
  Ti  Ti26      1.0  0.98278  0.41099  0.42320  1.0000
  Ti  Ti27      1.0  0.31313  0.62646  0.72939  1.0000
  Ti  Ti28      1.0  0.69965  0.63416  0.87728  1.0000
  Ti  Ti29      1.0  0.01910  0.19218  0.32996  1.0000
  Ti  Ti30      1.0  0.86611  0.47648  0.10649  1.0000
  Ti  Ti31      1.0  0.70033  0.42198  0.35576  1.0000
  Ti  Ti32      1.0  0.73786  0.93630  0.91754  1.0000
  Ti  Ti33      1.0  0.50728  0.73669  0.41460  1.0000
  Ti  Ti34      1.0  0.80527  0.71794  0.62719  1.0000
  Ti  Ti35      1.0  0.82468  0.27882  0.01737  1.0000
  Ti  Ti36      1.0  0.98703  0.59534  0.90606  1.0000
  Ti  Ti37      1.0  0.22705  0.18428  0.62833  1.0000
  Ti  Ti38      1.0  0.52736  0.29729  0.39956  1.0000
  Ti  Ti39      1.0  0.48815  0.21064  0.07550  1.0000
  Ti  Ti40      1.0  0.93468  0.62447  0.34458  1.0000
  Ti  Ti41      1.0  0.66263  0.60897  0.33139  1.0000
  Ti  Ti42      1.0  0.10972  0.82283  0.62345  1.0000
  Ti  Ti43      1.0  0.22844  0.92424  0.13935  1.0000
  Ti  Ti44      1.0  0.74092  0.70053  0.06349  1.0000
  Ti  Ti45      1.0  0.64772  0.48308  0.74616  1.0000
  Ti  Ti46      1.0  0.05193  0.97778  0.52105  1.0000
  Ti  Ti47      1.0  0.67918  0.17285  0.02311  1.0000
  Ti  Ti48      1.0  0.36414  0.57657  0.98332  1.0000
  Ti  Ti49      1.0  0.88572  0.93770  0.53513  1.0000
  Ti  Ti50      1.0  0.67132  0.09216  0.08143  1.0000
  Ti  Ti51      1.0  0.61487  0.05909  0.84094  1.0000
  Ti  Ti52      1.0  0.45071  0.49814  0.48508  1.0000
  Ti  Ti53      1.0  0.97099  0.79569  0.14739  1.0000
  Ti  Ti54      1.0  0.40529  0.04407  0.11099  1.0000
  Ti  Ti55      1.0  0.04108  0.95391  0.13155  1.0000
  Ti  Ti56      1.0  0.16046  0.61935  0.15878  1.0000
  Ti  Ti57      1.0  0.92256  0.10413  0.35132  1.0000
  Ti  Ti58      1.0  0.24833  0.96769  0.12938  1.0000
  Ti  Ti59      1.0  0.80770  0.96666  0.20580  1.0000
  Ti  Ti60      1.0  0.25094  0.73367  0.47272  1.0000
  Ti  Ti61      1.0  0.37032  0.83208  0.94828  1.0000
  Ti  Ti62      1.0  0.34240  0.29638  0.38015  1.0000
  Ti  Ti63      1.0  0.23175  0.20167  0.91888  1.0000
  Ti  Ti64      1.0  0.76117  0.59836  0.65710  1.0000
  Ti  Ti65      1.0  0.85905  0.29256  0.75102  1.0000
  Ti  Ti66      1.0  0.73812  0.25077  0.82802  1.0000
  Ti  Ti67      1.0  0.60665  0.93803  0.15397  1.0000
  Ti  Ti68      1.0  0.36734  0.14061  0.77632  1.0000
  Ti  Ti69      1.0  0.38326  0.42431  0.89781  1.0000
  Ti  Ti70      1.0  0.46370  0.96749  0.52107  1.0000
  Ti  Ti71      1.0  0.59935  0.79530  0.99789  1.0000
  Ti  Ti72      1.0  0.81872  0.83381  0.28037  1.0000
  Ti  Ti73      1.0  0.39821  0.59542  0.72560  1.0000
  Ti  Ti74      1.0  0.19181  0.29150  0.12524  1.0000
  Ti  Ti75      1.0  0.95940  0.47770  0.47955  1.0000
  Ti  Ti76      1.0  0.84795  0.51109  0.99021  1.0000
  Ti  Ti77      1.0  0.64203  0.65120  0.84297  1.0000
  Ti  Ti78      1.0  0.05847  0.19683  0.22866  1.0000
  Ti  Ti79      1.0  0.54298  0.76811  0.34202  1.0000
  Ti  Ti80      1.0  0.75738  0.43908  0.43360  1.0000
  Ti  Ti81      1.0  0.79190  0.95146  0.82137  1.0000
  Ti  Ti82      1.0  0.77602  0.72332  0.52417  1.0000
  Ti  Ti83      1.0  0.76381  0.31004  0.09850  1.0000
  Ti  Ti84      1.0  0.97248  0.55071  0.85133  1.0000
  Ti  Ti85      1.0  0.23214  0.11478  0.58398  1.0000
  Ti  Ti86      1.0  0.60202  0.24279  0.44524  1.0000
  Ti  Ti87      1.0  0.53977  0.21482  0.97242  1.0000
  Ti  Ti88      1.0  0.98652  0.66020  0.32439  1.0000
  Ti  Ti89      1.0  0.67278  0.65748  0.35205  1.0000
  Ti  Ti90      1.0  0.08880  0.78064  0.59841  1.0000
  Ti  Ti91      1.0  0.62562  0.45915  0.71115  1.0000
  Ti  Ti92      1.0  0.93181  0.13759  0.99199  1.0000
  Ti  Ti93      1.0  0.75341  0.73911  0.98288  1.0000
  Ti  Ti94      1.0  0.39657  0.62056  0.04508  1.0000
  Ti  Ti95      1.0  0.00528  0.95808  0.58049  1.0000
  Ti  Ti96      1.0  0.72064  0.11609  0.10517  1.0000
  I   I1        1.0  0.74844  0.11796  0.17336  1.0000
  I   I2        1.0  0.66394  0.03824  0.85382  1.0000
  I   I3        1.0  0.89303  0.85120  0.56731  1.0000
  I   I4        1.0  0.00212  0.75825  0.09521  1.0000
  I   I5        1.0  0.49719  0.97678  0.08123  1.0000
  I   I6        1.0  0.39476  0.08865  0.09051  1.0000
  I   I7        1.0  0.14280  0.59077  0.18908  1.0000
  I   I8        1.0  0.14571  0.64344  0.23481  1.0000
  I   I9        1.0  0.88912  0.15749  0.48406  1.0000
  I   I10       1.0  0.86640  0.97803  0.34296  1.0000
  I   I11       1.0  0.08034  0.60845  0.89332  1.0000
  I   I12       1.0  0.01038  0.81834  0.12981  1.0000
  I   I13       1.0  0.37642  0.31418  0.44221  1.0000
  I   I14       1.0  0.23066  0.09418  0.94504  1.0000
  I   I15       1.0  0.39891  0.85626  0.09780  1.0000
  I   I16       1.0  0.90427  0.25169  0.77169  1.0000
  I   I17       1.0  0.71940  0.23483  0.89593  1.0000
  I   I18       1.0  0.77865  0.54884  0.63674  1.0000
  I   I19       1.0  0.36994  0.10203  0.81572  1.0000
  I   I20       1.0  0.14108  0.61865  0.82637  1.0000
  I   I21       1.0  0.40584  0.42183  0.81593  1.0000
  I   I22       1.0  0.57976  0.85109  0.92899  1.0000
  I   I23       1.0  0.56752  0.79990  0.06068  1.0000
  I   I24       1.0  0.46276  0.92615  0.53461  1.0000
  I   I25       1.0  0.14707  0.33327  0.14409  1.0000
  I   I26       1.0  0.94534  0.40735  0.39393  1.0000
  I   I27       1.0  0.27510  0.67040  0.72359  1.0000
  I   I28       1.0  0.60014  0.66075  0.88196  1.0000
  I   I29       1.0  0.07876  0.16592  0.16605  1.0000
  I   I30       1.0  0.81878  0.48876  0.98860  1.0000
  I   I31       1.0  0.78192  0.42052  0.50296  1.0000
  I   I32       1.0  0.81282  0.97997  0.83087  1.0000
  I   I33       1.0  0.52638  0.81394  0.37316  1.0000
  I   I34       1.0  0.84066  0.28801  0.09933  1.0000
  I   I35       1.0  0.93825  0.56487  0.78534  1.0000
  I   I36       1.0  0.85004  0.68108  0.65275  1.0000
  I   I37       1.0  0.20619  0.22399  0.57527  1.0000
  I   I38       1.0  0.49181  0.23282  0.93582  1.0000
  I   I39       1.0  0.27126  0.09014  0.53560  1.0000
  I   I40       1.0  0.63451  0.63252  0.26260  1.0000
  I   I41       1.0  0.06666  0.82813  0.58075  1.0000
  I   I42       1.0  0.02321  0.63584  0.26952  1.0000
  I   I43       1.0  0.24497  0.93950  0.05437  1.0000
  I   I44       1.0  0.77614  0.70878  0.91769  1.0000
  I   I45       1.0  0.63183  0.49241  0.65258  1.0000
  I   I46       1.0  0.05859  0.01475  0.54544  1.0000
  I   I47       1.0  0.68243  0.16491  0.12786  1.0000
  I   I48       1.0  0.35256  0.58776  0.90234  1.0000
  I   I49       1.0  0.87906  0.93770  0.62307  1.0000
  I   I50       1.0  0.70004  0.06494  0.80922  1.0000
  I   I51       1.0  0.66903  0.09587  0.69482  1.0000
  I   I52       1.0  0.36718  0.52135  0.35417  1.0000
  I   I53       1.0  0.00314  0.81635  0.31208  1.0000
  I   I54       1.0  0.44731  0.04549  0.16174  1.0000
  I   I55       1.0  0.05456  0.90780  0.92017  1.0000
  I   I56       1.0  0.18328  0.63333  0.98856  1.0000
  I   I57       1.0  0.91190  0.15407  0.35865  1.0000
  I   I58       1.0  0.88984  0.99353  0.24201  1.0000
  I   I59       1.0  0.83866  0.98723  0.17618  1.0000
  I   I60       1.0  0.28153  0.69406  0.62231  1.0000
  I   I61       1.0  0.31893  0.27575  0.33726  1.0000
  I   I62       1.0  0.38550  0.28129  0.32959  1.0000
  I   I63       1.0  0.28043  0.09137  0.03762  1.0000
  I   I64       1.0  0.96264  0.23174  0.67303  1.0000
  I   I65       1.0  0.83798  0.32360  0.81572  1.0000
  I   I66       1.0  0.70911  0.26737  0.75809  1.0000
  I   I67       1.0  0.59674  0.90502  0.19687  1.0000
  I   I68       1.0  0.34904  0.12244  0.58060  1.0000
  I   I69       1.0  0.37982  0.44620  0.08837  1.0000
  I   I70       1.0  0.48060  0.00367  0.49387  1.0000
  I   I71       1.0  0.59571  0.80175  0.80818  1.0000
  I   I72       1.0  0.86346  0.83313  0.26647  1.0000
  I   I73       1.0  0.43055  0.55116  0.74743  1.0000
  I   I74       1.0  0.91956  0.50952  0.51756  1.0000
  I   I75       1.0  0.95056  0.43678  0.50033  1.0000
  I   I76       1.0  0.73676  0.63668  0.92614  1.0000
  I   I77       1.0  0.70672  0.65702  0.80100  1.0000
  I   I78       1.0  0.01566  0.23273  0.19433  1.0000
  I   I79       1.0  0.56891  0.77677  0.27645  1.0000
  I   I80       1.0  0.72846  0.41775  0.43679  1.0000
  I   I81       1.0  0.78597  0.91374  0.87733  1.0000
  I   I82       1.0  0.81949  0.67825  0.53683  1.0000
  I   I83       1.0  0.83952  0.29164  0.94581  1.0000
  I   I84       1.0  0.00780  0.56812  0.82181  1.0000
  I   I85       1.0  0.25193  0.13329  0.64388  1.0000
  I   I86       1.0  0.60699  0.19806  0.47862  1.0000
  I   I87       1.0  0.53905  0.17820  0.02955  1.0000
  I   I88       1.0  0.88788  0.63948  0.32840  1.0000
  I   I89       1.0  0.66517  0.68711  0.41930  1.0000
  I   I90       1.0  0.13499  0.78546  0.56135  1.0000
  I   I91       1.0  0.60019  0.49050  0.78872  1.0000
  I   I92       1.0  0.97441  0.11498  0.03146  1.0000
  I   I93       1.0  0.71099  0.71721  0.98340  1.0000
  I   I94       1.0  0.39028  0.52364  0.98230  1.0000
  I   I95       1.0  0.03546  0.97508  0.62273  1.0000
  I   I96       1.0  0.73754  0.14032  0.04969  1.0000
  I   I97       1.0  0.86336  0.80902  0.05657  1.0000
  I   I98       1.0  0.87336  0.97495  0.48132  1.0000
  I   I99       1.0  0.68347  0.01981  0.70633  1.0000
  I   I100      1.0  0.37282  0.46391  0.39650  1.0000
  I   I101      1.0  0.46950  0.47307  0.55837  1.0000
  I   I102      1.0  0.05652  0.77543  0.22818  1.0000
  I   I103      1.0  0.09390  0.85464  0.00277  1.0000
  I   I104      1.0  0.00214  0.00065  0.12968  1.0000
  I   I105      1.0  0.90087  0.07925  0.38598  1.0000
  I   I106      1.0  0.28450  0.71489  0.40731  1.0000
  I   I107      1.0  0.83967  0.93569  0.26935  1.0000
  I   I108      1.0  0.25217  0.68644  0.45745  1.0000
  I   I109      1.0  0.38926  0.78562  0.99962  1.0000
  I   I110      1.0  0.40593  0.25317  0.54741  1.0000
  I   I111      1.0  0.25833  0.15739  0.97706  1.0000
  I   I112      1.0  0.72462  0.60782  0.71666  1.0000
  I   I113      1.0  0.87521  0.25897  0.67669  1.0000
  I   I114      1.0  0.21098  0.30338  0.75225  1.0000
  I   I115      1.0  0.64188  0.95164  0.32618  1.0000
  I   I116      1.0  0.63999  0.91853  0.09171  1.0000
  I   I117      1.0  0.32712  0.14964  0.70121  1.0000
  I   I118      1.0  0.51692  0.93592  0.48963  1.0000
  I   I119      1.0  0.53900  0.93726  0.36688  1.0000
  I   I120      1.0  0.81064  0.82901  0.19524  1.0000
  I   I121      1.0  0.31400  0.60909  0.65171  1.0000
  I   I122      1.0  0.23691  0.25623  0.16351  1.0000
  I   I123      1.0  0.01205  0.41303  0.35358  1.0000
  I   I124      1.0  0.87469  0.51477  0.05154  1.0000
  I   I125      1.0  0.65062  0.69126  0.87517  1.0000
  I   I126      1.0  0.09953  0.20118  0.24356  1.0000
  I   I127      1.0  0.46407  0.77907  0.42366  1.0000
  I   I128      1.0  0.65185  0.45041  0.35087  1.0000
  I   I129      1.0  0.82089  0.91353  0.77616  1.0000
  I   I130      1.0  0.98168  0.61990  0.98200  1.0000
  I   I131      1.0  0.78361  0.71060  0.70540  1.0000
  I   I132      1.0  0.78285  0.30682  0.17442  1.0000
  I   I133      1.0  0.49692  0.19851  0.16108  1.0000
  I   I134      1.0  0.57173  0.24574  0.36296  1.0000
  I   I135      1.0  0.53902  0.30654  0.31195  1.0000
  I   I136      1.0  0.15176  0.81358  0.65821  1.0000
  I   I137      1.0  0.96883  0.64103  0.39586  1.0000
  I   I138      1.0  0.64570  0.58749  0.38682  1.0000
  I   I139      1.0  0.68365  0.45800  0.69109  1.0000
  I   I140      1.0  0.89940  0.14808  0.06049  1.0000
  I   I141      1.0  0.78169  0.76010  0.99633  1.0000
  I   I142      1.0  0.36220  0.64593  0.10519  1.0000
  I   I143      1.0  0.98433  0.94701  0.51283  1.0000
  I   I144      1.0  0.63363  0.20036  0.03778  1.0000
  I   I145      1.0  0.93194  0.90336  0.51579  1.0000
  I   I146      1.0  0.59535  0.07411  0.92994  1.0000
  I   I147      1.0  0.85794  0.74995  0.02447  1.0000
  I   I148      1.0  0.48264  0.50889  0.44057  1.0000
  I   I149      1.0  0.94971  0.81876  0.07572  1.0000
  I   I150      1.0  0.44357  0.98934  0.01057  1.0000
  I   I151      1.0  0.04674  0.94301  0.21735  1.0000
  I   I152      1.0  0.19147  0.64671  0.11827  1.0000
  I   I153      1.0  0.87459  0.10518  0.52082  1.0000
  I   I154      1.0  0.18943  0.92856  0.18263  1.0000
  I   I155      1.0  0.14951  0.55357  0.90261  1.0000
  I   I156      1.0  0.23416  0.66231  0.57839  1.0000
  I   I157      1.0  0.41210  0.81081  0.89189  1.0000
  I   I158      1.0  0.18350  0.22959  0.91778  1.0000
  I   I159      1.0  0.33381  0.82815  0.90124  1.0000
  I   I160      1.0  0.77211  0.57302  0.49175  1.0000
  I   I161      1.0  0.21341  0.32073  0.61374  1.0000
  I   I162      1.0  0.72179  0.61213  0.58262  1.0000
  I   I163      1.0  0.56476  0.95168  0.10704  1.0000
  I   I164      1.0  0.40678  0.14130  0.82046  1.0000
  I   I165      1.0  0.41114  0.37396  0.93538  1.0000
  I   I166      1.0  0.46812  0.98543  0.60913  1.0000
  I   I167      1.0  0.52756  0.83791  0.85621  1.0000
  I   I168      1.0  0.40201  0.04015  0.36641  1.0000
  I   I169      1.0  0.25811  0.18033  0.16676  1.0000
  I   I170      1.0  0.21333  0.22227  0.26496  1.0000
  I   I171      1.0  0.35659  0.59603  0.76684  1.0000
  I   I172      1.0  0.87369  0.49054  0.91804  1.0000
  I   I173      1.0  0.07077  0.15149  0.28539  1.0000
  I   I174      1.0  0.89992  0.47070  0.16083  1.0000
  I   I175      1.0  0.70957  0.40278  0.27828  1.0000
  I   I176      1.0  0.76260  0.97200  0.75408  1.0000
  I   I177      1.0  0.52673  0.77104  0.43884  1.0000
  I   I178      1.0  0.81145  0.75424  0.66306  1.0000
  I   I179      1.0  0.78917  0.32555  0.03405  1.0000
  I   I180      1.0  0.94382  0.58754  0.90131  1.0000
  I   I181      1.0  0.27267  0.18034  0.64059  1.0000
  I   I182      1.0  0.64304  0.23892  0.41159  1.0000
  I   I183      1.0  0.43923  0.24090  0.09162  1.0000
  I   I184      1.0  0.94098  0.66061  0.28305  1.0000
  I   I185      1.0  0.70237  0.56782  0.30038  1.0000
  I   I186      1.0  0.13123  0.73353  0.61665  1.0000
  I   I187      1.0  0.92718  0.17912  0.95555  1.0000
  I   I188      1.0  0.74024  0.75428  0.07932  1.0000
  I   I189      1.0  0.67147  0.47211  0.82556  1.0000
  I   I190      1.0  0.05909  0.96885  0.43695  1.0000
  I   I191      1.0  0.69529  0.10570  0.17220  1.0000
  I   I192      1.0  0.41279  0.57046  0.01306  1.0000
  I   I193      1.0  0.87598  0.90580  0.47096  1.0000
  I   I194      1.0  0.64938  0.06880  0.03040  1.0000
  I   I195      1.0  0.83817  0.80822  0.93136  1.0000
  I   I196      1.0  0.36976  0.50538  0.50378  1.0000
  I   I197      1.0  0.20475  0.98714  0.17439  1.0000
  I   I198      1.0  0.37904  0.04576  0.03932  1.0000
  I   I199      1.0  0.03750  0.95057  0.03214  1.0000
  I   I200      1.0  0.20661  0.58404  0.19785  1.0000
  I   I201      1.0  0.84179  0.14393  0.42342  1.0000
  I   I202      1.0  0.81413  0.93536  0.14522  1.0000
  I   I203      1.0  0.35072  0.44890  0.96581  1.0000
  I   I204      1.0  0.28400  0.74473  0.50939  1.0000
  I   I205      1.0  0.31390  0.34275  0.36241  1.0000
  I   I206      1.0  0.24493  0.22792  0.97632  1.0000
  I   I207      1.0  0.34613  0.83808  0.04045  1.0000
  I   I208      1.0  0.91361  0.28933  0.60174  1.0000
  I   I209      1.0  0.23612  0.35095  0.74106  1.0000
  I   I210      1.0  0.74363  0.64413  0.50060  1.0000
  I   I211      1.0  0.58044  0.97822  0.21588  1.0000
  I   I212      1.0  0.40286  0.10224  0.66924  1.0000
  I   I213      1.0  0.43134  0.38266  0.04909  1.0000
  I   I214      1.0  0.55746  0.97145  0.46462  1.0000
  I   I215      1.0  0.62366  0.78604  0.91737  1.0000
  I   I216      1.0  0.38027  0.99455  0.40134  1.0000
  I   I217      1.0  0.18599  0.20411  0.16240  1.0000
  I   I218      1.0  0.00990  0.43184  0.47882  1.0000
  I   I219      1.0  0.35392  0.63302  0.67618  1.0000
  I   I220      1.0  0.66837  0.60723  0.80185  1.0000
  I   I221      1.0  0.03872  0.22124  0.32120  1.0000
  I   I222      1.0  0.85041  0.44386  0.13300  1.0000
  I   I223      1.0  0.71484  0.45995  0.35705  1.0000
  I   I224      1.0  0.70092  0.97393  0.95989  1.0000
  I   I225      1.0  0.48774  0.71510  0.36520  1.0000
  I   I226      1.0  0.75286  0.75661  0.59911  1.0000
  I   I227      1.0  0.85509  0.22831  0.01326  1.0000
  I   I228      1.0  0.99324  0.52024  0.92267  1.0000
  I   I229      1.0  0.22876  0.07595  0.60762  1.0000
  I   I230      1.0  0.49051  0.34030  0.42647  1.0000
  I   I231      1.0  0.54867  0.25045  0.94811  1.0000
  I   I232      1.0  0.94857  0.59059  0.28036  1.0000
  I   I233      1.0  0.69115  0.61296  0.40620  1.0000
  I   I234      1.0  0.07570  0.75753  0.53554  1.0000
  I   I235      1.0  0.19983  0.91743  0.07243  1.0000
  I   I236      1.0  0.75281  0.65342  0.06671  1.0000
  I   I237      1.0  0.64135  0.52865  0.74774  1.0000
  I   I238      1.0  0.99570  0.00358  0.52932  1.0000
  I   I239      1.0  0.68633  0.12116  0.02404  1.0000
  I   I240      1.0  0.43215  0.59593  0.10125  1.0000
  I   I241      1.0  0.91396  0.83582  0.42697  1.0000
  I   I242      1.0  0.61790  0.10279  0.81483  1.0000
  I   I243      1.0  0.91714  0.76669  0.96755  1.0000
  I   I244      1.0  0.41245  0.52855  0.41798  1.0000
  I   I245      1.0  0.99481  0.77334  0.23526  1.0000
  I   I246      1.0  0.45543  0.05169  0.04878  1.0000
  I   I247      1.0  0.05738  0.90087  0.11015  1.0000
  I   I248      1.0  0.23625  0.58787  0.06565  1.0000
  I   I249      1.0  0.94000  0.09381  0.45365  1.0000
  I   I250      1.0  0.79084  0.01955  0.26502  1.0000
  I   I251      1.0  0.11373  0.58379  0.75774  1.0000
  I   I252      1.0  0.22268  0.77163  0.42166  1.0000
  I   I253      1.0  0.34796  0.31427  0.57684  1.0000
  I   I254      1.0  0.30649  0.06696  0.92672  1.0000
  I   I255      1.0  0.36655  0.87412  0.98060  1.0000
  I   I256      1.0  0.82316  0.27992  0.75455  1.0000
  I   I257      1.0  0.16483  0.38677  0.68645  1.0000
  I   I258      1.0  0.79299  0.58876  0.72223  1.0000
  I   I259      1.0  0.65344  0.99102  0.22609  1.0000
  I   I260      1.0  0.33081  0.16812  0.82717  1.0000
  I   I261      1.0  0.36444  0.39001  0.02094  1.0000
  I   I262      1.0  0.49378  0.00649  0.36456  1.0000
  I   I263      1.0  0.56987  0.77662  0.93970  1.0000
  I   I264      1.0  0.36769  0.04601  0.48536  1.0000
  I   I265      1.0  0.17351  0.26820  0.20432  1.0000
  I   I266      1.0  0.94650  0.47694  0.39441  1.0000
  I   I267      1.0  0.29559  0.59965  0.77767  1.0000
  I   I268      1.0  0.73842  0.59431  0.85553  1.0000
  I   I269      1.0  0.02868  0.16518  0.40466  1.0000
  I   I270      1.0  0.82487  0.55831  0.96284  1.0000
  I   I271      1.0  0.78783  0.42485  0.35583  1.0000
  I   I272      1.0  0.71443  0.92485  0.86083  1.0000
  I   I273      1.0  0.55710  0.71612  0.36474  1.0000
  I   I274      1.0  0.77772  0.72310  0.43682  1.0000
  I   I275      1.0  0.72719  0.35968  0.10650  1.0000
  I   I276      1.0  0.03499  0.57328  0.92661  1.0000
  I   I277      1.0  0.21014  0.20240  0.70861  1.0000
  I   I278      1.0  0.56913  0.29483  0.45629  1.0000
  I   I279      1.0  0.50643  0.24666  0.04407  1.0000
  I   I280      1.0  0.01293  0.66867  0.38279  1.0000
  I   I281      1.0  0.62543  0.66032  0.36320  1.0000
  I   I282      1.0  0.10487  0.85847  0.56977  1.0000
  I   I283      1.0  0.26080  0.87886  0.14481  1.0000
  I   I284      1.0  0.69785  0.71855  0.10334  1.0000
  I   I285      1.0  0.64817  0.42686  0.77592  1.0000
  I   I286      1.0  0.07075  0.92885  0.54035  1.0000
  I   I287      1.0  0.73117  0.06678  0.07007  1.0000
  I   I288      1.0  0.32497  0.58098  0.02259  1.0000
  I   I289      1.0  0.96095  0.83513  0.51913  1.0000
  I   I290      1.0  0.62597  0.11880  0.10811  1.0000
  I   I291      1.0  0.62049  0.05330  0.75376  1.0000
  I   I292      1.0  0.44631  0.46046  0.43397  1.0000
  I   I293      1.0  0.91842  0.80353  0.14854  1.0000
  I   I294      1.0  0.43239  0.99072  0.14202  1.0000
  I   I295      1.0  0.09853  0.92284  0.96551  1.0000
  I   I296      1.0  0.12555  0.64131  0.09281  1.0000
  I   I297      1.0  0.97005  0.07171  0.33508  1.0000
  I   I298      1.0  0.26066  0.99318  0.06871  1.0000
  I   I299      1.0  0.82598  0.04893  0.30220  1.0000
  I   I300      1.0  0.21852  0.73726  0.54407  1.0000
  I   I301      1.0  0.36594  0.81856  0.16387  1.0000
  I   I302      1.0  0.31595  0.29850  0.48062  1.0000
  I   I303      1.0  0.25012  0.12946  0.87021  1.0000
  I   I304      1.0  0.81462  0.59218  0.58143  1.0000
  I   I305      1.0  0.93313  0.30164  0.71939  1.0000
  I   I306      1.0  0.78494  0.22224  0.81021  1.0000
  I   I307      1.0  0.58593  0.01873  0.30710  1.0000
  I   I308      1.0  0.39653  0.14859  0.58228  1.0000
  I   I309      1.0  0.40971  0.43755  0.95205  1.0000
  I   I310      1.0  0.41592  0.99427  0.53675  1.0000
  I   I311      1.0  0.62088  0.81702  0.03827  1.0000
  I   I312      1.0  0.81616  0.79460  0.30941  1.0000
  I   I313      1.0  0.39336  0.62922  0.78667  1.0000
  I   I314      1.0  0.21522  0.31265  0.07879  1.0000
  I   I315      1.0  0.00575  0.36717  0.46264  1.0000
  I   I316      1.0  0.89793  0.44874  0.04625  1.0000
  I   I317      1.0  0.67122  0.62047  0.91935  1.0000
  I   I318      1.0  0.97430  0.22700  0.36109  1.0000
  I   I319      1.0  0.50067  0.72717  0.50004  1.0000
  I   I320      1.0  0.69879  0.38116  0.38318  1.0000
  I   I321      1.0  0.75077  0.90661  0.99064  1.0000
  I   I322      1.0  0.80888  0.74147  0.53921  1.0000
  I   I323      1.0  0.78289  0.26912  0.03139  1.0000
  I   I324      1.0  0.99251  0.50982  0.80373  1.0000
  I   I325      1.0  0.20882  0.11999  0.49667  1.0000
  I   I326      1.0  0.61292  0.25201  0.52901  1.0000
  I   I327      1.0  0.58032  0.18198  0.93145  1.0000
  I   I328      1.0  0.95696  0.70541  0.32137  1.0000
  I   I329      1.0  0.70333  0.62809  0.28490  1.0000
  I   I330      1.0  0.09777  0.79415  0.69082  1.0000
  I   I331      1.0  0.57782  0.48545  0.68855  1.0000
  I   I332      1.0  0.28439  0.91902  0.17187  1.0000
  I   I333      1.0  0.71767  0.77660  0.93213  1.0000
  I   I334      1.0  0.41185  0.64147  0.97863  1.0000
  I   I335      1.0  0.02193  0.91276  0.60990  1.0000
  I   I336      1.0  0.69018  0.20740  0.00726  1.0000
  I   I337      1.0  0.83202  0.95282  0.53707  1.0000
  I   I338      1.0  0.68459  0.04845  0.13401  1.0000
  I   I339      1.0  0.60177  0.02587  0.84451  1.0000
  I   I340      1.0  0.41533  0.53760  0.52269  1.0000
  I   I341      1.0  0.95349  0.83305  0.21253  1.0000
  I   I342      1.0  0.36154  0.05863  0.15372  1.0000
  I   I343      1.0  0.08420  0.95556  0.11896  1.0000
  I   I344      1.0  0.18366  0.57086  0.06605  1.0000
  I   I345      1.0  0.89910  0.11987  0.27663  1.0000
  I   I346      1.0  0.27536  0.97890  0.18092  1.0000
  I   I347      1.0  0.75874  0.98259  0.21277  1.0000
  I   I348      1.0  0.30668  0.65126  0.52619  1.0000
  I   I349      1.0  0.43219  0.78213  0.10923  1.0000
  I   I350      1.0  0.37749  0.25246  0.43543  1.0000
  I   I351      1.0  0.24867  0.19440  0.83730  1.0000
  I   I352      1.0  0.74973  0.64579  0.62951  1.0000
  I   I353      1.0  0.86456  0.32960  0.70462  1.0000
  I   I354      1.0  0.73444  0.29100  0.86451  1.0000
  I   I355      1.0  0.64257  0.93823  0.21222  1.0000
  I   I356      1.0  0.38562  0.16514  0.70637  1.0000
  I   I357      1.0  0.34947  0.41628  0.86315  1.0000
  I   I358      1.0  0.45287  0.96652  0.43337  1.0000
  I   I359      1.0  0.62638  0.74828  0.03444  1.0000
  I   I360      1.0  0.78883  0.86783  0.33289  1.0000
  I   I361      1.0  0.42534  0.60524  0.66845  1.0000
  I   I362      1.0  0.18446  0.26820  0.05703  1.0000
  I   I363      1.0  0.98236  0.50735  0.45203  1.0000
  I   I364      1.0  0.82219  0.51527  0.12768  1.0000
  I   I365      1.0  0.61744  0.68297  0.77491  1.0000
  I   I366      1.0  0.00178  0.17313  0.27315  1.0000
  I   I367      1.0  0.50865  0.76631  0.28945  1.0000
  I   I368      1.0  0.73798  0.49064  0.43637  1.0000
  I   I369      1.0  0.75585  0.97792  0.89481  1.0000
  I   I370      1.0  0.74394  0.70702  0.53880  1.0000
  I   I371      1.0  0.74128  0.28358  0.12461  1.0000
  I   I372      1.0  0.97870  0.63284  0.84534  1.0000
  I   I373      1.0  0.19375  0.17174  0.59772  1.0000
  I   I374      1.0  0.51597  0.27382  0.46481  1.0000
  I   I375      1.0  0.48087  0.17507  0.03576  1.0000
  I   I376      1.0  0.93767  0.60388  0.42730  1.0000
  I   I377      1.0  0.65965  0.69179  0.28486  1.0000
  I   I378      1.0  0.05296  0.78177  0.65276  1.0000
  I   I379      1.0  0.63065  0.42185  0.65452  1.0000
  I   I380      1.0  0.91665  0.11042  0.94230  1.0000
  I   I381      1.0  0.78814  0.69033  0.03070  1.0000
  I   I382      1.0  0.35235  0.62916  0.97691  1.0000
  I   I383      1.0  0.97232  0.98295  0.64427  1.0000
  I   I384      1.0  0.66718  0.16554  0.93704  1.0000
