data_image0
_chemical_formula_structural       Ti96I384
_chemical_formula_sum              "Ti96 I384"
_cell_length_a       36.8307
_cell_length_b       36.3135
_cell_length_c       22.1888
_cell_angle_alpha    88.7757
_cell_angle_beta     88.7757
_cell_angle_gamma    62.1586

_space_group_name_H-M_alt    "P 1"
_space_group_IT_number       1

loop_
  _space_group_symop_operation_xyz
  'x, y, z'

loop_
  _atom_site_type_symbol
  _atom_site_label
  _atom_site_symmetry_multiplicity
  _atom_site_fract_x
  _atom_site_fract_y
  _atom_site_fract_z
  _atom_site_occupancy
  Ti  Ti1       1.0  0.15383  0.08768  0.25947  1.0000
  Ti  Ti2       1.0  0.17013  0.07561  0.59407  1.0000
  Ti  Ti3       1.0  0.15210  0.08873  0.92035  1.0000
  Ti  Ti4       1.0  0.14315  0.35677  0.24977  1.0000
  Ti  Ti5       1.0  0.15086  0.33918  0.59554  1.0000
  Ti  Ti6       1.0  0.14864  0.34496  0.93006  1.0000
  Ti  Ti7       1.0  0.17555  0.58160  0.27460  1.0000
  Ti  Ti8       1.0  0.16160  0.60113  0.60557  1.0000
  Ti  Ti9       1.0  0.17281  0.57311  0.95100  1.0000
  Ti  Ti10      1.0  0.13537  0.85561  0.25201  1.0000
  Ti  Ti11      1.0  0.15076  0.85587  0.57896  1.0000
  Ti  Ti12      1.0  0.14673  0.85112  0.91463  1.0000
  Ti  Ti13      1.0  0.40137  0.09024  0.24183  1.0000
  Ti  Ti14      1.0  0.40308  0.08840  0.59001  1.0000
  Ti  Ti15      1.0  0.40677  0.09097  0.91345  1.0000
  Ti  Ti16      1.0  0.40436  0.33195  0.27628  1.0000
  Ti  Ti17      1.0  0.39729  0.33556  0.61379  1.0000
  Ti  Ti18      1.0  0.38726  0.34170  0.94869  1.0000
  Ti  Ti19      1.0  0.39868  0.61942  0.25411  1.0000
  Ti  Ti20      1.0  0.38723  0.63581  0.57825  1.0000
  Ti  Ti21      1.0  0.40158  0.60825  0.92404  1.0000
  Ti  Ti22      1.0  0.42910  0.82462  0.23630  1.0000
  Ti  Ti23      1.0  0.41686  0.84102  0.57727  1.0000
  Ti  Ti24      1.0  0.43243  0.82074  0.91329  1.0000
  Ti  Ti25      1.0  0.67086  0.07396  0.21430  1.0000
  Ti  Ti26      1.0  0.68131  0.07124  0.54483  1.0000
  Ti  Ti27      1.0  0.68516  0.06752  0.87127  1.0000
  Ti  Ti28      1.0  0.63797  0.36088  0.25246  1.0000
  Ti  Ti29      1.0  0.64823  0.36574  0.59882  1.0000
  Ti  Ti30      1.0  0.64136  0.34536  0.92867  1.0000
  Ti  Ti31      1.0  0.65789  0.58664  0.25572  1.0000
  Ti  Ti32      1.0  0.66903  0.58923  0.58409  1.0000
  Ti  Ti33      1.0  0.67259  0.58342  0.92176  1.0000
  Ti  Ti34      1.0  0.65524  0.85714  0.24279  1.0000
  Ti  Ti35      1.0  0.64857  0.86948  0.57486  1.0000
  Ti  Ti36      1.0  0.65279  0.85323  0.91909  1.0000
  Ti  Ti37      1.0  0.90419  0.08697  0.22034  1.0000
  Ti  Ti38      1.0  0.88944  0.09894  0.55746  1.0000
  Ti  Ti39      1.0  0.91724  0.07963  0.89653  1.0000
  Ti  Ti40      1.0  0.90451  0.34039  0.24983  1.0000
  Ti  Ti41      1.0  0.91832  0.33979  0.58499  1.0000
  Ti  Ti42      1.0  0.91289  0.33477  0.91328  1.0000
  Ti  Ti43      1.0  0.91225  0.59537  0.25879  1.0000
  Ti  Ti44      1.0  0.92087  0.59893  0.59751  1.0000
  Ti  Ti45      1.0  0.91649  0.59137  0.91993  1.0000
  Ti  Ti46      1.0  0.91924  0.81524  0.23386  1.0000
  Ti  Ti47      1.0  0.91809  0.83172  0.56155  1.0000
  Ti  Ti48      1.0  0.91984  0.83318  0.90858  1.0000
  Ti  Ti49      1.0  0.07673  0.16003  0.09111  1.0000
  Ti  Ti50      1.0  0.09963  0.15309  0.42978  1.0000
  Ti  Ti51      1.0  0.08591  0.14723  0.75790  1.0000
  Ti  Ti52      1.0  0.07623  0.42256  0.09056  1.0000
  Ti  Ti53      1.0  0.09818  0.41125  0.43169  1.0000
  Ti  Ti54      1.0  0.08176  0.41702  0.77218  1.0000
  Ti  Ti55      1.0  0.10726  0.64779  0.10690  1.0000
  Ti  Ti56      1.0  0.09628  0.65110  0.43316  1.0000
  Ti  Ti57      1.0  0.11141  0.65464  0.78973  1.0000
  Ti  Ti58      1.0  0.07647  0.91461  0.06969  1.0000
  Ti  Ti59      1.0  0.07327  0.92948  0.41427  1.0000
  Ti  Ti60      1.0  0.08370  0.92749  0.73844  1.0000
  Ti  Ti61      1.0  0.33282  0.14918  0.07087  1.0000
  Ti  Ti62      1.0  0.33555  0.15471  0.41798  1.0000
  Ti  Ti63      1.0  0.33695  0.15980  0.75955  1.0000
  Ti  Ti64      1.0  0.33816  0.40764  0.11313  1.0000
  Ti  Ti65      1.0  0.33500  0.40832  0.45285  1.0000
  Ti  Ti66      1.0  0.32579  0.41619  0.78332  1.0000
  Ti  Ti67      1.0  0.32225  0.67137  0.08416  1.0000
  Ti  Ti68      1.0  0.32137  0.67988  0.40865  1.0000
  Ti  Ti69      1.0  0.31980  0.67888  0.75864  1.0000
  Ti  Ti70      1.0  0.35787  0.89047  0.06747  1.0000
  Ti  Ti71      1.0  0.35130  0.89614  0.39635  1.0000
  Ti  Ti72      1.0  0.35556  0.89637  0.75054  1.0000
  Ti  Ti73      1.0  0.60342  0.13142  0.03904  1.0000
  Ti  Ti74      1.0  0.59748  0.13595  0.38832  1.0000
  Ti  Ti75      1.0  0.61686  0.13266  0.70921  1.0000
  Ti  Ti76      1.0  0.57383  0.42403  0.08852  1.0000
  Ti  Ti77      1.0  0.58648  0.42767  0.42437  1.0000
  Ti  Ti78      1.0  0.58034  0.43040  0.76185  1.0000
  Ti  Ti79      1.0  0.60372  0.65919  0.08009  1.0000
  Ti  Ti80      1.0  0.59510  0.66553  0.41424  1.0000
  Ti  Ti81      1.0  0.61009  0.65315  0.74820  1.0000
  Ti  Ti82      1.0  0.57785  0.91830  0.08272  1.0000
  Ti  Ti83      1.0  0.58266  0.92315  0.41020  1.0000
  Ti  Ti84      1.0  0.58465  0.91485  0.74592  1.0000
  Ti  Ti85      1.0  0.84225  0.15292  0.05027  1.0000
  Ti  Ti86      1.0  0.83229  0.16066  0.38485  1.0000
  Ti  Ti87      1.0  0.84304  0.15742  0.73271  1.0000
  Ti  Ti88      1.0  0.83997  0.39809  0.08141  1.0000
  Ti  Ti89      1.0  0.84508  0.40077  0.42852  1.0000
  Ti  Ti90      1.0  0.84561  0.39861  0.74496  1.0000
  Ti  Ti91      1.0  0.83675  0.65592  0.09611  1.0000
  Ti  Ti92      1.0  0.85966  0.64827  0.43896  1.0000
  Ti  Ti93      1.0  0.85630  0.67009  0.76135  1.0000
  Ti  Ti94      1.0  0.86100  0.89221  0.07374  1.0000
  Ti  Ti95      1.0  0.85315  0.89564  0.39980  1.0000
  Ti  Ti96      1.0  0.86096  0.88836  0.73940  1.0000
  I   I1        1.0  0.08275  0.11976  0.32315  1.0000
  I   I2        1.0  0.09460  0.09760  0.66622  1.0000
  I   I3        1.0  0.07768  0.10582  0.98724  1.0000
  I   I4        1.0  0.06737  0.38616  0.32278  1.0000
  I   I5        1.0  0.06215  0.39040  0.66351  1.0000
  I   I6        1.0  0.06357  0.39090  0.98708  1.0000
  I   I7        1.0  0.09092  0.61148  0.33467  1.0000
  I   I8        1.0  0.08999  0.61710  0.68846  1.0000
  I   I9        1.0  0.08888  0.61299  0.00273  1.0000
  I   I10       1.0  0.05697  0.90171  0.30782  1.0000
  I   I11       1.0  0.06839  0.89048  0.63455  1.0000
  I   I12       1.0  0.06353  0.88638  0.95081  1.0000
  I   I13       1.0  0.31604  0.11754  0.32089  1.0000
  I   I14       1.0  0.32068  0.13539  0.64852  1.0000
  I   I15       1.0  0.33458  0.10435  0.97949  1.0000
  I   I16       1.0  0.32269  0.37785  0.32851  1.0000
  I   I17       1.0  0.31093  0.38347  0.68565  1.0000
  I   I18       1.0  0.30429  0.38884  0.00144  1.0000
  I   I19       1.0  0.32361  0.62777  0.31711  1.0000
  I   I20       1.0  0.31198  0.64561  0.65520  1.0000
  I   I21       1.0  0.32813  0.61604  0.98875  1.0000
  I   I22       1.0  0.34778  0.85010  0.30419  1.0000
  I   I23       1.0  0.33849  0.86829  0.65200  1.0000
  I   I24       1.0  0.34789  0.86107  0.96078  1.0000
  I   I25       1.0  0.59009  0.09987  0.27218  1.0000
  I   I26       1.0  0.60643  0.09306  0.61076  1.0000
  I   I27       1.0  0.59744  0.09006  0.93468  1.0000
  I   I28       1.0  0.56327  0.40191  0.32659  1.0000
  I   I29       1.0  0.56095  0.40718  0.65486  1.0000
  I   I30       1.0  0.56182  0.39076  0.98611  1.0000
  I   I31       1.0  0.57687  0.63703  0.31590  1.0000
  I   I32       1.0  0.58894  0.62725  0.64113  1.0000
  I   I33       1.0  0.58744  0.63245  0.96548  1.0000
  I   I34       1.0  0.57359  0.88285  0.30829  1.0000
  I   I35       1.0  0.57377  0.88877  0.63620  1.0000
  I   I36       1.0  0.57602  0.87627  0.98817  1.0000
  I   I37       1.0  0.82192  0.12046  0.29669  1.0000
  I   I38       1.0  0.81848  0.14254  0.61905  1.0000
  I   I39       1.0  0.83525  0.11122  0.94516  1.0000
  I   I40       1.0  0.83084  0.36882  0.31303  1.0000
  I   I41       1.0  0.84078  0.35759  0.64438  1.0000
  I   I42       1.0  0.83203  0.35426  0.98678  1.0000
  I   I43       1.0  0.84206  0.61472  0.33547  1.0000
  I   I44       1.0  0.83993  0.62854  0.65832  1.0000
  I   I45       1.0  0.83754  0.61284  0.99167  1.0000
  I   I46       1.0  0.84263  0.85232  0.29383  1.0000
  I   I47       1.0  0.84285  0.86181  0.63334  1.0000
  I   I48       1.0  0.84061  0.87778  0.95438  1.0000
  I   I49       1.0  0.11477  0.17100  0.18487  1.0000
  I   I50       1.0  0.13183  0.16420  0.53078  1.0000
  I   I51       1.0  0.09834  0.16912  0.86796  1.0000
  I   I52       1.0  0.12177  0.43352  0.18636  1.0000
  I   I53       1.0  0.13846  0.41511  0.53176  1.0000
  I   I54       1.0  0.11522  0.42616  0.87748  1.0000
  I   I55       1.0  0.13580  0.66283  0.21344  1.0000
  I   I56       1.0  0.10839  0.67716  0.55586  1.0000
  I   I57       1.0  0.14954  0.65765  0.88751  1.0000
  I   I58       1.0  0.11601  0.92606  0.17360  1.0000
  I   I59       1.0  0.09825  0.94500  0.52109  1.0000
  I   I60       1.0  0.11803  0.93857  0.84047  1.0000
  I   I61       1.0  0.35323  0.17265  0.17826  1.0000
  I   I62       1.0  0.37235  0.17263  0.51182  1.0000
  I   I63       1.0  0.38143  0.17050  0.85236  1.0000
  I   I64       1.0  0.37305  0.41801  0.20612  1.0000
  I   I65       1.0  0.37573  0.41726  0.55703  1.0000
  I   I66       1.0  0.36479  0.41938  0.89174  1.0000
  I   I67       1.0  0.33982  0.70116  0.19279  1.0000
  I   I68       1.0  0.34483  0.71921  0.51888  1.0000
  I   I69       1.0  0.35988  0.69195  0.85390  1.0000
  I   I70       1.0  0.38599  0.90561  0.17743  1.0000
  I   I71       1.0  0.38381  0.91600  0.50846  1.0000
  I   I72       1.0  0.39805  0.90125  0.85172  1.0000
  I   I73       1.0  0.63170  0.15638  0.13460  1.0000
  I   I74       1.0  0.63394  0.15375  0.48114  1.0000
  I   I75       1.0  0.64662  0.15101  0.81018  1.0000
  I   I76       1.0  0.60006  0.44338  0.19802  1.0000
  I   I77       1.0  0.61406  0.44485  0.53521  1.0000
  I   I78       1.0  0.61196  0.43559  0.87249  1.0000
  I   I79       1.0  0.63868  0.66446  0.18872  1.0000
  I   I80       1.0  0.63356  0.67130  0.52176  1.0000
  I   I81       1.0  0.64462  0.66978  0.85682  1.0000
  I   I82       1.0  0.61098  0.93779  0.17930  1.0000
  I   I83       1.0  0.62135  0.94483  0.50834  1.0000
  I   I84       1.0  0.61468  0.93606  0.85904  1.0000
  I   I85       1.0  0.86655  0.16860  0.15495  1.0000
  I   I86       1.0  0.86621  0.18033  0.48727  1.0000
  I   I87       1.0  0.88393  0.16182  0.83274  1.0000
  I   I88       1.0  0.87425  0.41541  0.18057  1.0000
  I   I89       1.0  0.86959  0.42098  0.53423  1.0000
  I   I90       1.0  0.87726  0.41350  0.85306  1.0000
  I   I91       1.0  0.85716  0.68043  0.20198  1.0000
  I   I92       1.0  0.89312  0.67295  0.52880  1.0000
  I   I93       1.0  0.87377  0.68385  0.86927  1.0000
  I   I94       1.0  0.90422  0.89547  0.17010  1.0000
  I   I95       1.0  0.88060  0.91593  0.50847  1.0000
  I   I96       1.0  0.88989  0.91603  0.83373  1.0000
  I   I97       1.0  0.16387  0.12160  0.02094  1.0000
  I   I98       1.0  0.17876  0.11271  0.36140  1.0000
  I   I99       1.0  0.17061  0.11433  0.69917  1.0000
  I   I100      1.0  0.16526  0.36843  0.04126  1.0000
  I   I101      1.0  0.17260  0.36721  0.35893  1.0000
  I   I102      1.0  0.16786  0.36952  0.69233  1.0000
  I   I103      1.0  0.18995  0.60365  0.04586  1.0000
  I   I104      1.0  0.18245  0.61916  0.37015  1.0000
  I   I105      1.0  0.17838  0.63443  0.70479  1.0000
  I   I106      1.0  0.15832  0.88074  0.01766  1.0000
  I   I107      1.0  0.15269  0.89449  0.34856  1.0000
  I   I108      1.0  0.16458  0.88978  0.68301  1.0000
  I   I109      1.0  0.41483  0.13265  0.01053  1.0000
  I   I110      1.0  0.41178  0.12527  0.34188  1.0000
  I   I111      1.0  0.41003  0.12641  0.69115  1.0000
  I   I112      1.0  0.40758  0.37789  0.03592  1.0000
  I   I113      1.0  0.41381  0.36956  0.39087  1.0000
  I   I114      1.0  0.41295  0.37350  0.71031  1.0000
  I   I115      1.0  0.40148  0.64878  0.03580  1.0000
  I   I116      1.0  0.40227  0.65510  0.35524  1.0000
  I   I117      1.0  0.40072  0.65933  0.69281  1.0000
  I   I118      1.0  0.43888  0.85820  0.01322  1.0000
  I   I119      1.0  0.43416  0.85737  0.34499  1.0000
  I   I120      1.0  0.43665  0.86674  0.68743  1.0000
  I   I121      1.0  0.68302  0.11240  0.96941  1.0000
  I   I122      1.0  0.67138  0.11824  0.31036  1.0000
  I   I123      1.0  0.69091  0.11757  0.64128  1.0000
  I   I124      1.0  0.65243  0.38282  0.02773  1.0000
  I   I125      1.0  0.67049  0.38213  0.35961  1.0000
  I   I126      1.0  0.66759  0.39591  0.70484  1.0000
  I   I127      1.0  0.68025  0.60310  0.03049  1.0000
  I   I128      1.0  0.67722  0.61755  0.35970  1.0000
  I   I129      1.0  0.68502  0.62568  0.67699  1.0000
  I   I130      1.0  0.65968  0.89858  0.00912  1.0000
  I   I131      1.0  0.66002  0.89486  0.34230  1.0000
  I   I132      1.0  0.65800  0.90372  0.68406  1.0000
  I   I133      1.0  0.92632  0.11619  0.00027  1.0000
  I   I134      1.0  0.91637  0.12347  0.32350  1.0000
  I   I135      1.0  0.91760  0.12964  0.65530  1.0000
  I   I136      1.0  0.92296  0.37219  0.01273  1.0000
  I   I137      1.0  0.91727  0.38143  0.35616  1.0000
  I   I138      1.0  0.92302  0.38982  0.68215  1.0000
  I   I139      1.0  0.92021  0.63015  0.02492  1.0000
  I   I140      1.0  0.92995  0.63070  0.36655  1.0000
  I   I141      1.0  0.93745  0.63213  0.69987  1.0000
  I   I142      1.0  0.93775  0.86086  0.01469  1.0000
  I   I143      1.0  0.93077  0.85258  0.34120  1.0000
  I   I144      1.0  0.93891  0.85824  0.67030  1.0000
  I   I145      1.0  0.11999  0.07757  0.15548  1.0000
  I   I146      1.0  0.13234  0.06592  0.50064  1.0000
  I   I147      1.0  0.11204  0.07001  0.83570  1.0000
  I   I148      1.0  0.10283  0.34124  0.15107  1.0000
  I   I149      1.0  0.12609  0.32695  0.48842  1.0000
  I   I150      1.0  0.10351  0.33838  0.82942  1.0000
  I   I151      1.0  0.13862  0.57001  0.16866  1.0000
  I   I152      1.0  0.13147  0.57615  0.50094  1.0000
  I   I153      1.0  0.13957  0.57002  0.84251  1.0000
  I   I154      1.0  0.10515  0.83949  0.13756  1.0000
  I   I155      1.0  0.11398  0.84956  0.47841  1.0000
  I   I156      1.0  0.11361  0.84059  0.80664  1.0000
  I   I157      1.0  0.35865  0.06798  0.16016  1.0000
  I   I158      1.0  0.37188  0.07303  0.48869  1.0000
  I   I159      1.0  0.37776  0.07050  0.81274  1.0000
  I   I160      1.0  0.37132  0.32170  0.17598  1.0000
  I   I161      1.0  0.35232  0.33398  0.51987  1.0000
  I   I162      1.0  0.35287  0.33649  0.83663  1.0000
  I   I163      1.0  0.37355  0.59224  0.14817  1.0000
  I   I164      1.0  0.36393  0.60620  0.46947  1.0000
  I   I165      1.0  0.36955  0.59364  0.82512  1.0000
  I   I166      1.0  0.38688  0.81370  0.14030  1.0000
  I   I167      1.0  0.38405  0.82131  0.47127  1.0000
  I   I168      1.0  0.39931  0.81043  0.80902  1.0000
  I   I169      1.0  0.64656  0.05263  0.10094  1.0000
  I   I170      1.0  0.64840  0.05216  0.44931  1.0000
  I   I171      1.0  0.65726  0.04796  0.77153  1.0000
  I   I172      1.0  0.60427  0.34671  0.15588  1.0000
  I   I173      1.0  0.60491  0.35606  0.49290  1.0000
  I   I174      1.0  0.60685  0.34697  0.81220  1.0000
  I   I175      1.0  0.62519  0.57623  0.14995  1.0000
  I   I176      1.0  0.62238  0.58668  0.48201  1.0000
  I   I177      1.0  0.64643  0.56912  0.81324  1.0000
  I   I178      1.0  0.62172  0.83822  0.14295  1.0000
  I   I179      1.0  0.63074  0.84272  0.46310  1.0000
  I   I180      1.0  0.62672  0.83427  0.80307  1.0000
  I   I181      1.0  0.87475  0.07359  0.11216  1.0000
  I   I182      1.0  0.86157  0.07948  0.46096  1.0000
  I   I183      1.0  0.88378  0.07365  0.78782  1.0000
  I   I184      1.0  0.87627  0.31943  0.15396  1.0000
  I   I185      1.0  0.88117  0.31387  0.49004  1.0000
  I   I186      1.0  0.87702  0.31877  0.81559  1.0000
  I   I187      1.0  0.88016  0.57701  0.15975  1.0000
  I   I188      1.0  0.91134  0.56526  0.48870  1.0000
  I   I189      1.0  0.89068  0.58313  0.81332  1.0000
  I   I190      1.0  0.88799  0.80926  0.12710  1.0000
  I   I191      1.0  0.88781  0.81629  0.45895  1.0000
  I   I192      1.0  0.89281  0.81322  0.80203  1.0000
  I   I193      1.0  0.22495  0.07239  0.20594  1.0000
  I   I194      1.0  0.23765  0.06642  0.54270  1.0000
  I   I195      1.0  0.21445  0.09185  0.86177  1.0000
  I   I196      1.0  0.21338  0.33096  0.19704  1.0000
  I   I197      1.0  0.23050  0.30012  0.56498  1.0000
  I   I198      1.0  0.21908  0.31677  0.88279  1.0000
  I   I199      1.0  0.24671  0.56830  0.23605  1.0000
  I   I200      1.0  0.22556  0.60365  0.55735  1.0000
  I   I201      1.0  0.24746  0.54871  0.90448  1.0000
  I   I202      1.0  0.21464  0.82702  0.21964  1.0000
  I   I203      1.0  0.21808  0.84297  0.52702  1.0000
  I   I204      1.0  0.21565  0.81991  0.85100  1.0000
  I   I205      1.0  0.46718  0.08359  0.19038  1.0000
  I   I206      1.0  0.47315  0.07863  0.54887  1.0000
  I   I207      1.0  0.48028  0.07944  0.87405  1.0000
  I   I208      1.0  0.47443  0.31555  0.22376  1.0000
  I   I209      1.0  0.47009  0.31510  0.56691  1.0000
  I   I210      1.0  0.46363  0.30184  0.90922  1.0000
  I   I211      1.0  0.46879  0.60619  0.21107  1.0000
  I   I212      1.0  0.46064  0.62919  0.55258  1.0000
  I   I213      1.0  0.46950  0.60274  0.88164  1.0000
  I   I214      1.0  0.49848  0.80688  0.18788  1.0000
  I   I215      1.0  0.48804  0.82340  0.52654  1.0000
  I   I216      1.0  0.50670  0.79434  0.86580  1.0000
  I   I217      1.0  0.74076  0.05955  0.16548  1.0000
  I   I218      1.0  0.74478  0.07246  0.48786  1.0000
  I   I219      1.0  0.74998  0.06715  0.82063  1.0000
  I   I220      1.0  0.71327  0.34087  0.22006  1.0000
  I   I221      1.0  0.72128  0.33007  0.54378  1.0000
  I   I222      1.0  0.71511  0.32186  0.88937  1.0000
  I   I223      1.0  0.73286  0.55668  0.21214  1.0000
  I   I224      1.0  0.73398  0.56588  0.52042  1.0000
  I   I225      1.0  0.74634  0.55914  0.88136  1.0000
  I   I226      1.0  0.72852  0.83784  0.20554  1.0000
  I   I227      1.0  0.72595  0.84244  0.53139  1.0000
  I   I228      1.0  0.72488  0.84013  0.86917  1.0000
  I   I229      1.0  0.97725  0.06606  0.17452  1.0000
  I   I230      1.0  0.96371  0.07671  0.51946  1.0000
  I   I231      1.0  0.99113  0.05828  0.86214  1.0000
  I   I232      1.0  0.97791  0.32059  0.20367  1.0000
  I   I233      1.0  0.97918  0.33873  0.51860  1.0000
  I   I234      1.0  0.98133  0.32161  0.85839  1.0000
  I   I235      1.0  0.97948  0.59170  0.20494  1.0000
  I   I236      1.0  0.99915  0.57378  0.56879  1.0000
  I   I237      1.0  0.98895  0.57134  0.88118  1.0000
  I   I238      1.0  0.99494  0.79204  0.18556  1.0000
  I   I239      1.0  0.98932  0.81812  0.52002  1.0000
  I   I240      1.0  0.98934  0.81825  0.85725  1.0000
  I   I241      1.0  0.16851  0.01172  0.29842  1.0000
  I   I242      1.0  0.19849  0.00280  0.64318  1.0000
  I   I243      1.0  0.18624  0.00895  0.95448  1.0000
  I   I244      1.0  0.16077  0.28421  0.30177  1.0000
  I   I245      1.0  0.15339  0.27054  0.63429  1.0000
  I   I246      1.0  0.15100  0.27651  0.97546  1.0000
  I   I247      1.0  0.19498  0.51146  0.32624  1.0000
  I   I248      1.0  0.20434  0.52179  0.63957  1.0000
  I   I249      1.0  0.18619  0.50224  0.99750  1.0000
  I   I250      1.0  0.15345  0.78286  0.30521  1.0000
  I   I251      1.0  0.16703  0.77984  0.61458  1.0000
  I   I252      1.0  0.15922  0.78171  0.96154  1.0000
  I   I253      1.0  0.43128  0.01418  0.28293  1.0000
  I   I254      1.0  0.42585  0.01338  0.63772  1.0000
  I   I255      1.0  0.44323  0.01198  0.94930  1.0000
  I   I256      1.0  0.42432  0.26691  0.33929  1.0000
  I   I257      1.0  0.41331  0.26224  0.66111  1.0000
  I   I258      1.0  0.38459  0.27271  0.98949  1.0000
  I   I259      1.0  0.42723  0.54278  0.29362  1.0000
  I   I260      1.0  0.41374  0.56134  0.62483  1.0000
  I   I261      1.0  0.44200  0.53294  0.96076  1.0000
  I   I262      1.0  0.45164  0.75408  0.29236  1.0000
  I   I263      1.0  0.43702  0.76521  0.61641  1.0000
  I   I264      1.0  0.44564  0.75103  0.96892  1.0000
  I   I265      1.0  0.69336  0.99968  0.25094  1.0000
  I   I266      1.0  0.72662  0.00092  0.59360  1.0000
  I   I267      1.0  0.71386  0.99309  0.91972  1.0000
  I   I268      1.0  0.65074  0.29232  0.30917  1.0000
  I   I269      1.0  0.65168  0.29784  0.63860  1.0000
  I   I270      1.0  0.64495  0.27650  0.98023  1.0000
  I   I271      1.0  0.66434  0.51941  0.31020  1.0000
  I   I272      1.0  0.68552  0.51916  0.64173  1.0000
  I   I273      1.0  0.68675  0.50715  0.95129  1.0000
  I   I274      1.0  0.67865  0.78313  0.28983  1.0000
  I   I275      1.0  0.66557  0.79798  0.63546  1.0000
  I   I276      1.0  0.69063  0.78003  0.96625  1.0000
  I   I277      1.0  0.91803  0.01882  0.27564  1.0000
  I   I278      1.0  0.90732  0.02514  0.61283  1.0000
  I   I279      1.0  0.93108  0.00811  0.93893  1.0000
  I   I280      1.0  0.93296  0.27159  0.31442  1.0000
  I   I281      1.0  0.95538  0.26397  0.61781  1.0000
  I   I282      1.0  0.93927  0.25663  0.95896  1.0000
  I   I283      1.0  0.94261  0.52082  0.30028  1.0000
  I   I284      1.0  0.94007  0.52352  0.64283  1.0000
  I   I285      1.0  0.94093  0.51742  0.96237  1.0000
  I   I286      1.0  0.93161  0.74773  0.29315  1.0000
  I   I287      1.0  0.94407  0.75594  0.60793  1.0000
  I   I288      1.0  0.94219  0.76065  0.95780  1.0000
  I   I289      1.0  0.00455  0.17929  0.13328  1.0000
  I   I290      1.0  0.02521  0.17608  0.46388  1.0000
  I   I291      1.0  0.00514  0.16893  0.77949  1.0000
  I   I292      1.0  0.00559  0.45154  0.14890  1.0000
  I   I293      1.0  0.02488  0.44221  0.47377  1.0000
  I   I294      1.0  0.00513  0.45278  0.79898  1.0000
  I   I295      1.0  0.03457  0.66905  0.14600  1.0000
  I   I296      1.0  0.02480  0.67048  0.47987  1.0000
  I   I297      1.0  0.03982  0.67609  0.84440  1.0000
  I   I298      1.0  0.00115  0.93981  0.10924  1.0000
  I   I299      1.0  0.99995  0.94720  0.45693  1.0000
  I   I300      1.0  0.01312  0.93890  0.78500  1.0000
  I   I301      1.0  0.26071  0.15830  0.09605  1.0000
  I   I302      1.0  0.26585  0.17098  0.46965  1.0000
  I   I303      1.0  0.27191  0.16904  0.81688  1.0000
  I   I304      1.0  0.26482  0.42266  0.15323  1.0000
  I   I305      1.0  0.25837  0.43414  0.48472  1.0000
  I   I306      1.0  0.25592  0.43260  0.83774  1.0000
  I   I307      1.0  0.25629  0.67637  0.13049  1.0000
  I   I308      1.0  0.24692  0.69871  0.45095  1.0000
  I   I309      1.0  0.24951  0.69926  0.80821  1.0000
  I   I310      1.0  0.28487  0.91442  0.11663  1.0000
  I   I311      1.0  0.27676  0.93235  0.43544  1.0000
  I   I312      1.0  0.28474  0.91774  0.80491  1.0000
  I   I313      1.0  0.53817  0.13616  0.08961  1.0000
  I   I314      1.0  0.53229  0.13257  0.43698  1.0000
  I   I315      1.0  0.55036  0.14623  0.76689  1.0000
  I   I316      1.0  0.50399  0.44925  0.14704  1.0000
  I   I317      1.0  0.51356  0.46310  0.47266  1.0000
  I   I318      1.0  0.50594  0.46148  0.81061  1.0000
  I   I319      1.0  0.52854  0.68537  0.10763  1.0000
  I   I320      1.0  0.52378  0.69578  0.46109  1.0000
  I   I321      1.0  0.53973  0.67270  0.79955  1.0000
  I   I322      1.0  0.50426  0.93922  0.12762  1.0000
  I   I323      1.0  0.51762  0.93064  0.46534  1.0000
  I   I324      1.0  0.52575  0.91087  0.81267  1.0000
  I   I325      1.0  0.77109  0.17249  0.09895  1.0000
  I   I326      1.0  0.76331  0.18162  0.44478  1.0000
  I   I327      1.0  0.77125  0.17215  0.76711  1.0000
  I   I328      1.0  0.76748  0.41276  0.12374  1.0000
  I   I329      1.0  0.77481  0.40971  0.47290  1.0000
  I   I330      1.0  0.77900  0.39494  0.78124  1.0000
  I   I331      1.0  0.76389  0.67025  0.14059  1.0000
  I   I332      1.0  0.79533  0.66225  0.50445  1.0000
  I   I333      1.0  0.77888  0.68760  0.78385  1.0000
  I   I334      1.0  0.79135  0.91252  0.12988  1.0000
  I   I335      1.0  0.78340  0.90889  0.44439  1.0000
  I   I336      1.0  0.78862  0.90611  0.78504  1.0000
  I   I337      1.0  0.06303  0.23220  0.04627  1.0000
  I   I338      1.0  0.08070  0.22514  0.37499  1.0000
  I   I339      1.0  0.07995  0.21593  0.70620  1.0000
  I   I340      1.0  0.05952  0.49329  0.03655  1.0000
  I   I341      1.0  0.08962  0.47396  0.36924  1.0000
  I   I342      1.0  0.08349  0.48503  0.72929  1.0000
  I   I343      1.0  0.10196  0.71432  0.05272  1.0000
  I   I344      1.0  0.09992  0.71691  0.39217  1.0000
  I   I345      1.0  0.09121  0.72974  0.75320  1.0000
  I   I346      1.0  0.05598  0.99219  0.03537  1.0000
  I   I347      1.0  0.04825  0.00502  0.37364  1.0000
  I   I348      1.0  0.05773  0.00046  0.69321  1.0000
  I   I349      1.0  0.29920  0.22823  0.03025  1.0000
  I   I350      1.0  0.30858  0.22751  0.36982  1.0000
  I   I351      1.0  0.31502  0.23701  0.72933  1.0000
  I   I352      1.0  0.32634  0.47712  0.05349  1.0000
  I   I353      1.0  0.32315  0.47853  0.40247  1.0000
  I   I354      1.0  0.32037  0.48592  0.74386  1.0000
  I   I355      1.0  0.29693  0.74225  0.03079  1.0000
  I   I356      1.0  0.30506  0.75465  0.36760  1.0000
  I   I357      1.0  0.29150  0.75487  0.71955  1.0000
  I   I358      1.0  0.34510  0.96347  0.02145  1.0000
  I   I359      1.0  0.34623  0.96374  0.33731  1.0000
  I   I360      1.0  0.33604  0.97193  0.71129  1.0000
  I   I361      1.0  0.57237  0.20780  0.98885  1.0000
  I   I362      1.0  0.55449  0.20860  0.34121  1.0000
  I   I363      1.0  0.57714  0.20549  0.65363  1.0000
  I   I364      1.0  0.55656  0.50014  0.03832  1.0000
  I   I365      1.0  0.56567  0.50304  0.37041  1.0000
  I   I366      1.0  0.57350  0.50120  0.73114  1.0000
  I   I367      1.0  0.60011  0.72382  0.02103  1.0000
  I   I368      1.0  0.58400  0.73893  0.37806  1.0000
  I   I369      1.0  0.58307  0.72801  0.70883  1.0000
  I   I370      1.0  0.55916  0.99105  0.02816  1.0000
  I   I371      1.0  0.55677  0.99474  0.35689  1.0000
  I   I372      1.0  0.54949  0.99256  0.71929  1.0000
  I   I373      1.0  0.81743  0.22305  0.98730  1.0000
  I   I374      1.0  0.80719  0.23264  0.32958  1.0000
  I   I375      1.0  0.83426  0.23222  0.70648  1.0000
  I   I376      1.0  0.82861  0.46990  0.04141  1.0000
  I   I377      1.0  0.80455  0.47608  0.37829  1.0000
  I   I378      1.0  0.80873  0.47292  0.71358  1.0000
  I   I379      1.0  0.81357  0.72849  0.04258  1.0000
  I   I380      1.0  0.81819  0.72433  0.38865  1.0000
  I   I381      1.0  0.84439  0.73819  0.70048  1.0000
  I   I382      1.0  0.83579  0.97014  0.04267  1.0000
  I   I383      1.0  0.83271  0.96699  0.35163  1.0000
  I   I384      1.0  0.84160  0.96138  0.69062  1.0000
