data_image0
_chemical_formula_structural       Ti96I384
_chemical_formula_sum              "Ti96 I384"
_cell_length_a       41.4522
_cell_length_b       41.0769
_cell_length_c       22.3811
_cell_angle_alpha    88.7757
_cell_angle_beta     88.7757
_cell_angle_gamma    62.1586

_space_group_name_H-M_alt    "P 1"
_space_group_IT_number       1

loop_
  _space_group_symop_operation_xyz
  'x, y, z'

loop_
  _atom_site_type_symbol
  _atom_site_label
  _atom_site_symmetry_multiplicity
  _atom_site_fract_x
  _atom_site_fract_y
  _atom_site_fract_z
  _atom_site_occupancy
  Ti  Ti1       1.0  0.19012  0.09058  0.06383  1.0000
  Ti  Ti2       1.0  0.14764  0.13293  0.44603  1.0000
  Ti  Ti3       1.0  0.14628  0.11459  0.76436  1.0000
  Ti  Ti4       1.0  0.22138  0.29526  0.14584  1.0000
  Ti  Ti5       1.0  0.23122  0.31189  0.49306  1.0000
  Ti  Ti6       1.0  0.22597  0.30438  0.84307  1.0000
  Ti  Ti7       1.0  0.09697  0.66522  0.35618  1.0000
  Ti  Ti8       1.0  0.09225  0.64833  0.69828  1.0000
  Ti  Ti9       1.0  0.09666  0.68324  0.02401  1.0000
  Ti  Ti10      1.0  0.18015  0.86239  0.24091  1.0000
  Ti  Ti11      1.0  0.15915  0.88012  0.59131  1.0000
  Ti  Ti12      1.0  0.15629  0.87854  0.90703  1.0000
  Ti  Ti13      1.0  0.47239  0.05118  0.28081  1.0000
  Ti  Ti14      1.0  0.45461  0.05214  0.62682  1.0000
  Ti  Ti15      1.0  0.45648  0.05100  0.94772  1.0000
  Ti  Ti16      1.0  0.35799  0.43562  0.39707  1.0000
  Ti  Ti17      1.0  0.35037  0.43785  0.73507  1.0000
  Ti  Ti18      1.0  0.34922  0.43282  0.06646  1.0000
  Ti  Ti19      1.0  0.42905  0.59136  0.48377  1.0000
  Ti  Ti20      1.0  0.39994  0.61752  0.81665  1.0000
  Ti  Ti21      1.0  0.42055  0.62712  0.12543  1.0000
  Ti  Ti22      1.0  0.45033  0.82979  0.04791  1.0000
  Ti  Ti23      1.0  0.40601  0.85024  0.39158  1.0000
  Ti  Ti24      1.0  0.44899  0.82492  0.69999  1.0000
  Ti  Ti25      1.0  0.60208  0.12744  0.33147  1.0000
  Ti  Ti26      1.0  0.59597  0.14480  0.65500  1.0000
  Ti  Ti27      1.0  0.59493  0.15417  0.99451  1.0000
  Ti  Ti28      1.0  0.64902  0.35643  0.18740  1.0000
  Ti  Ti29      1.0  0.64453  0.37957  0.52508  1.0000
  Ti  Ti30      1.0  0.65348  0.35774  0.85436  1.0000
  Ti  Ti31      1.0  0.67853  0.57426  0.03255  1.0000
  Ti  Ti32      1.0  0.65561  0.56762  0.34663  1.0000
  Ti  Ti33      1.0  0.68020  0.55952  0.68959  1.0000
  Ti  Ti34      1.0  0.68897  0.82155  0.35648  1.0000
  Ti  Ti35      1.0  0.67908  0.80270  0.67893  1.0000
  Ti  Ti36      1.0  0.69240  0.81370  0.00568  1.0000
  Ti  Ti37      1.0  0.87525  0.05930  0.28958  1.0000
  Ti  Ti38      1.0  0.88819  0.06240  0.60734  1.0000
  Ti  Ti39      1.0  0.87958  0.08203  0.95239  1.0000
  Ti  Ti40      1.0  0.89736  0.30209  0.08018  1.0000
  Ti  Ti41      1.0  0.91313  0.31351  0.43034  1.0000
  Ti  Ti42      1.0  0.91212  0.30229  0.77520  1.0000
  Ti  Ti43      1.0  0.93712  0.52609  0.32402  1.0000
  Ti  Ti44      1.0  0.95393  0.53049  0.65753  1.0000
  Ti  Ti45      1.0  0.93648  0.53550  0.99843  1.0000
  Ti  Ti46      1.0  0.82366  0.89645  0.31263  1.0000
  Ti  Ti47      1.0  0.84383  0.89873  0.64346  1.0000
  Ti  Ti48      1.0  0.83626  0.90588  0.98717  1.0000
  Ti  Ti49      1.0  0.10692  0.15928  0.94019  1.0000
  Ti  Ti50      1.0  0.09039  0.18030  0.27300  1.0000
  Ti  Ti51      1.0  0.07659  0.17988  0.60771  1.0000
  Ti  Ti52      1.0  0.14923  0.31619  0.99462  1.0000
  Ti  Ti53      1.0  0.16523  0.32509  0.32950  1.0000
  Ti  Ti54      1.0  0.17387  0.32172  0.66810  1.0000
  Ti  Ti55      1.0  0.02480  0.73082  0.19682  1.0000
  Ti  Ti56      1.0  0.03808  0.72333  0.53189  1.0000
  Ti  Ti57      1.0  0.02553  0.71897  0.85182  1.0000
  Ti  Ti58      1.0  0.09791  0.91520  0.08251  1.0000
  Ti  Ti59      1.0  0.09898  0.90813  0.40545  1.0000
  Ti  Ti60      1.0  0.09220  0.92251  0.74578  1.0000
  Ti  Ti61      1.0  0.39787  0.10538  0.12190  1.0000
  Ti  Ti62      1.0  0.39964  0.08930  0.43952  1.0000
  Ti  Ti63      1.0  0.38661  0.08721  0.78167  1.0000
  Ti  Ti64      1.0  0.28120  0.46832  0.22869  1.0000
  Ti  Ti65      1.0  0.29280  0.48154  0.56324  1.0000
  Ti  Ti66      1.0  0.27767  0.46651  0.90132  1.0000
  Ti  Ti67      1.0  0.36901  0.66544  0.31051  1.0000
  Ti  Ti68      1.0  0.34475  0.67408  0.64002  1.0000
  Ti  Ti69      1.0  0.33905  0.66685  0.98221  1.0000
  Ti  Ti70      1.0  0.43017  0.86452  0.87798  1.0000
  Ti  Ti71      1.0  0.31780  0.94115  0.29126  1.0000
  Ti  Ti72      1.0  0.36921  0.90257  0.56802  1.0000
  Ti  Ti73      1.0  0.54111  0.19561  0.16590  1.0000
  Ti  Ti74      1.0  0.53783  0.19165  0.49142  1.0000
  Ti  Ti75      1.0  0.53446  0.20750  0.82488  1.0000
  Ti  Ti76      1.0  0.58607  0.40840  0.02153  1.0000
  Ti  Ti77      1.0  0.58460  0.41743  0.35679  1.0000
  Ti  Ti78      1.0  0.58331  0.43042  0.70930  1.0000
  Ti  Ti79      1.0  0.62523  0.62285  0.84753  1.0000
  Ti  Ti80      1.0  0.60459  0.63852  0.19025  1.0000
  Ti  Ti81      1.0  0.62086  0.61828  0.52661  1.0000
  Ti  Ti82      1.0  0.62760  0.86986  0.17216  1.0000
  Ti  Ti83      1.0  0.62940  0.87695  0.52017  1.0000
  Ti  Ti84      1.0  0.63713  0.87489  0.83209  1.0000
  Ti  Ti85      1.0  0.81601  0.12517  0.11935  1.0000
  Ti  Ti86      1.0  0.83936  0.13284  0.44572  1.0000
  Ti  Ti87      1.0  0.81564  0.12617  0.77076  1.0000
  Ti  Ti88      1.0  0.84180  0.37490  0.92648  1.0000
  Ti  Ti89      1.0  0.84123  0.36566  0.25246  1.0000
  Ti  Ti90      1.0  0.86035  0.37351  0.60157  1.0000
  Ti  Ti91      1.0  0.91220  0.59993  0.16551  1.0000
  Ti  Ti92      1.0  0.91664  0.59622  0.48366  1.0000
  Ti  Ti93      1.0  0.92590  0.60421  0.83682  1.0000
  Ti  Ti94      1.0  0.76130  0.94079  0.14673  1.0000
  Ti  Ti95      1.0  0.76774  0.94698  0.48818  1.0000
  Ti  Ti96      1.0  0.77621  0.95747  0.80897  1.0000
  I   I1        1.0  0.09902  0.13116  0.19066  1.0000
  I   I2        1.0  0.07605  0.14583  0.50352  1.0000
  I   I3        1.0  0.08012  0.13886  0.85064  1.0000
  I   I4        1.0  0.17006  0.28895  0.22641  1.0000
  I   I5        1.0  0.18764  0.28756  0.56419  1.0000
  I   I6        1.0  0.16545  0.28504  0.89079  1.0000
  I   I7        1.0  0.02636  0.69790  0.42141  1.0000
  I   I8        1.0  0.00561  0.69909  0.74533  1.0000
  I   I9        1.0  0.02377  0.69329  0.09854  1.0000
  I   I10       1.0  0.11886  0.85252  0.32836  1.0000
  I   I11       1.0  0.08502  0.89253  0.64590  1.0000
  I   I12       1.0  0.08018  0.89888  0.97982  1.0000
  I   I13       1.0  0.40323  0.06235  0.32443  1.0000
  I   I14       1.0  0.38522  0.05865  0.67189  1.0000
  I   I15       1.0  0.39383  0.06675  0.02304  1.0000
  I   I16       1.0  0.28569  0.44546  0.46353  1.0000
  I   I17       1.0  0.28201  0.43070  0.80001  1.0000
  I   I18       1.0  0.28161  0.42654  0.12970  1.0000
  I   I19       1.0  0.34830  0.64927  0.52725  1.0000
  I   I20       1.0  0.32767  0.63363  0.89683  1.0000
  I   I21       1.0  0.35215  0.64753  0.20032  1.0000
  I   I22       1.0  0.25826  0.93448  0.31254  1.0000
  I   I23       1.0  0.33642  0.88502  0.46208  1.0000
  I   I24       1.0  0.38876  0.84913  0.79604  1.0000
  I   I25       1.0  0.54314  0.14412  0.39724  1.0000
  I   I26       1.0  0.51826  0.17965  0.72534  1.0000
  I   I27       1.0  0.53822  0.15613  0.06462  1.0000
  I   I28       1.0  0.58163  0.37512  0.25316  1.0000
  I   I29       1.0  0.57997  0.39342  0.59601  1.0000
  I   I30       1.0  0.58562  0.36546  0.92953  1.0000
  I   I31       1.0  0.60272  0.61524  0.06836  1.0000
  I   I32       1.0  0.59358  0.59700  0.42227  1.0000
  I   I33       1.0  0.60171  0.59506  0.75839  1.0000
  I   I34       1.0  0.60971  0.85936  0.40924  1.0000
  I   I35       1.0  0.61168  0.84456  0.73772  1.0000
  I   I36       1.0  0.62586  0.83414  0.06811  1.0000
  I   I37       1.0  0.80646  0.11330  0.35838  1.0000
  I   I38       1.0  0.81514  0.08431  0.66519  1.0000
  I   I39       1.0  0.81382  0.09141  0.02250  1.0000
  I   I40       1.0  0.83098  0.34070  0.14446  1.0000
  I   I41       1.0  0.83775  0.34727  0.50442  1.0000
  I   I42       1.0  0.83836  0.33624  0.82890  1.0000
  I   I43       1.0  0.86868  0.59886  0.40906  1.0000
  I   I44       1.0  0.89541  0.58539  0.72854  1.0000
  I   I45       1.0  0.88071  0.60069  0.05048  1.0000
  I   I46       1.0  0.76152  0.90866  0.39974  1.0000
  I   I47       1.0  0.77184  0.93080  0.70627  1.0000
  I   I48       1.0  0.76897  0.91118  0.04099  1.0000
  I   I49       1.0  0.14725  0.16925  0.02680  1.0000
  I   I50       1.0  0.10313  0.20558  0.37773  1.0000
  I   I51       1.0  0.10711  0.18513  0.71299  1.0000
  I   I52       1.0  0.15870  0.35577  0.10230  1.0000
  I   I53       1.0  0.15553  0.36460  0.44246  1.0000
  I   I54       1.0  0.16852  0.35264  0.78064  1.0000
  I   I55       1.0  0.06434  0.73557  0.28855  1.0000
  I   I56       1.0  0.07070  0.72029  0.63636  1.0000
  I   I57       1.0  0.05413  0.74994  0.95042  1.0000
  I   I58       1.0  0.14142  0.92711  0.16597  1.0000
  I   I59       1.0  0.10915  0.93924  0.51830  1.0000
  I   I60       1.0  0.11315  0.94793  0.85293  1.0000
  I   I61       1.0  0.42341  0.12188  0.22586  1.0000
  I   I62       1.0  0.40785  0.11808  0.54091  1.0000
  I   I63       1.0  0.39675  0.11573  0.87961  1.0000
  I   I64       1.0  0.30444  0.50046  0.31590  1.0000
  I   I65       1.0  0.30273  0.50586  0.68590  1.0000
  I   I66       1.0  0.29112  0.49299  0.00845  1.0000
  I   I67       1.0  0.41513  0.65672  0.40476  1.0000
  I   I68       1.0  0.35753  0.68355  0.76012  1.0000
  I   I69       1.0  0.37869  0.69744  0.06396  1.0000
  I   I70       1.0  0.48425  0.85981  0.95666  1.0000
  I   I71       1.0  0.38215  0.92877  0.34878  1.0000
  I   I72       1.0  0.41419  0.90441  0.64965  1.0000
  I   I73       1.0  0.56490  0.20668  0.27698  1.0000
  I   I74       1.0  0.56664  0.21125  0.58718  1.0000
  I   I75       1.0  0.55392  0.22759  0.93062  1.0000
  I   I76       1.0  0.61120  0.42711  0.12455  1.0000
  I   I77       1.0  0.59501  0.44472  0.45753  1.0000
  I   I78       1.0  0.61065  0.44341  0.80472  1.0000
  I   I79       1.0  0.66494  0.63020  0.95245  1.0000
  I   I80       1.0  0.63394  0.64134  0.29529  1.0000
  I   I81       1.0  0.65261  0.63081  0.63149  1.0000
  I   I82       1.0  0.64437  0.88796  0.28267  1.0000
  I   I83       1.0  0.66040  0.87741  0.62450  1.0000
  I   I84       1.0  0.66506  0.88517  0.94105  1.0000
  I   I85       1.0  0.85689  0.13168  0.21275  1.0000
  I   I86       1.0  0.88142  0.12747  0.54536  1.0000
  I   I87       1.0  0.83291  0.14683  0.87980  1.0000
  I   I88       1.0  0.87678  0.37562  0.02734  1.0000
  I   I89       1.0  0.87973  0.38568  0.35860  1.0000
  I   I90       1.0  0.89260  0.37686  0.71274  1.0000
  I   I91       1.0  0.95253  0.58724  0.26681  1.0000
  I   I92       1.0  0.97347  0.57990  0.58958  1.0000
  I   I93       1.0  0.95960  0.58782  0.94122  1.0000
  I   I94       1.0  0.77207  0.96301  0.26487  1.0000
  I   I95       1.0  0.80592  0.96801  0.57702  1.0000
  I   I96       1.0  0.80338  0.97214  0.91568  1.0000
  I   I97       1.0  0.17246  0.12969  0.86852  1.0000
  I   I98       1.0  0.20308  0.12562  0.14996  1.0000
  I   I99       1.0  0.14811  0.15801  0.55600  1.0000
  I   I100      1.0  0.19157  0.35204  0.94278  1.0000
  I   I101      1.0  0.21516  0.33035  0.25864  1.0000
  I   I102      1.0  0.21545  0.35605  0.60087  1.0000
  I   I103      1.0  0.08662  0.72948  0.11785  1.0000
  I   I104      1.0  0.10565  0.69849  0.46395  1.0000
  I   I105      1.0  0.09160  0.69681  0.79344  1.0000
  I   I106      1.0  0.15783  0.91293  0.00010  1.0000
  I   I107      1.0  0.16762  0.90778  0.33547  1.0000
  I   I108      1.0  0.15107  0.93040  0.67932  1.0000
  I   I109      1.0  0.46180  0.08781  0.04676  1.0000
  I   I110      1.0  0.47125  0.08483  0.38681  1.0000
  I   I111      1.0  0.44457  0.09889  0.71230  1.0000
  I   I112      1.0  0.34373  0.46741  0.16231  1.0000
  I   I113      1.0  0.35402  0.47629  0.49005  1.0000
  I   I114      1.0  0.33876  0.47238  0.85058  1.0000
  I   I115      1.0  0.43218  0.65613  0.22671  1.0000
  I   I116      1.0  0.44859  0.61540  0.57910  1.0000
  I   I117      1.0  0.40583  0.65570  0.90836  1.0000
  I   I118      1.0  0.48489  0.83362  0.79735  1.0000
  I   I119      1.0  0.45712  0.87829  0.12196  1.0000
  I   I120      1.0  0.43495  0.86049  0.49654  1.0000
  I   I121      1.0  0.59838  0.19295  0.09208  1.0000
  I   I122      1.0  0.61750  0.15722  0.43240  1.0000
  I   I123      1.0  0.60599  0.17804  0.75176  1.0000
  I   I124      1.0  0.65678  0.38738  0.97780  1.0000
  I   I125      1.0  0.64713  0.40170  0.29231  1.0000
  I   I126      1.0  0.65182  0.41508  0.63077  1.0000
  I   I127      1.0  0.70109  0.58513  0.78080  1.0000
  I   I128      1.0  0.67470  0.61053  0.14111  1.0000
  I   I129      1.0  0.68891  0.57845  0.45508  1.0000
  I   I130      1.0  0.69860  0.84267  0.10966  1.0000
  I   I131      1.0  0.70060  0.83270  0.46602  1.0000
  I   I132      1.0  0.70651  0.81927  0.77766  1.0000
  I   I133      1.0  0.90144  0.08443  0.05908  1.0000
  I   I134      1.0  0.90347  0.07201  0.38437  1.0000
  I   I135      1.0  0.89722  0.09611  0.71053  1.0000
  I   I136      1.0  0.92211  0.33040  0.87010  1.0000
  I   I137      1.0  0.90771  0.33666  0.18546  1.0000
  I   I138      1.0  0.92723  0.33107  0.53566  1.0000
  I   I139      1.0  0.96719  0.53503  0.10294  1.0000
  I   I140      1.0  0.97337  0.53571  0.41363  1.0000
  I   I141      1.0  0.98386  0.53742  0.76562  1.0000
  I   I142      1.0  0.83289  0.93563  0.09423  1.0000
  I   I143      1.0  0.83577  0.92392  0.41549  1.0000
  I   I144      1.0  0.85361  0.93015  0.76058  1.0000
  I   I145      1.0  0.14108  0.07854  0.99499  1.0000
  I   I146      1.0  0.12766  0.11305  0.33919  1.0000
  I   I147      1.0  0.12078  0.10160  0.66028  1.0000
  I   I148      1.0  0.21737  0.25692  0.04686  1.0000
  I   I149      1.0  0.23808  0.26856  0.40227  1.0000
  I   I150      1.0  0.24376  0.27644  0.71996  1.0000
  I   I151      1.0  0.08183  0.63853  0.24643  1.0000
  I   I152      1.0  0.06411  0.63776  0.60223  1.0000
  I   I153      1.0  0.06167  0.66168  0.94433  1.0000
  I   I154      1.0  0.15544  0.84381  0.13881  1.0000
  I   I155      1.0  0.15130  0.84878  0.48334  1.0000
  I   I156      1.0  0.13217  0.85396  0.80684  1.0000
  I   I157      1.0  0.44296  0.03414  0.17134  1.0000
  I   I158      1.0  0.43465  0.02373  0.52057  1.0000
  I   I159      1.0  0.44746  0.01247  0.86135  1.0000
  I   I160      1.0  0.34419  0.40640  0.29612  1.0000
  I   I161      1.0  0.33600  0.41545  0.62510  1.0000
  I   I162      1.0  0.34066  0.40632  0.95695  1.0000
  I   I163      1.0  0.39255  0.59404  0.37510  1.0000
  I   I164      1.0  0.37125  0.60125  0.71260  1.0000
  I   I165      1.0  0.39579  0.59878  0.02710  1.0000
  I   I166      1.0  0.45134  0.79402  0.92448  1.0000
  I   I167      1.0  0.35662  0.85739  0.30086  1.0000
  I   I168      1.0  0.39229  0.83156  0.63088  1.0000
  I   I169      1.0  0.58767  0.12118  0.21537  1.0000
  I   I170      1.0  0.55997  0.12616  0.57850  1.0000
  I   I171      1.0  0.57856  0.13697  0.88420  1.0000
  I   I172      1.0  0.62497  0.33671  0.09196  1.0000
  I   I173      1.0  0.63297  0.35088  0.42106  1.0000
  I   I174      1.0  0.62520  0.35010  0.75875  1.0000
  I   I175      1.0  0.64307  0.55828  0.92899  1.0000
  I   I176      1.0  0.61599  0.57116  0.25558  1.0000
  I   I177      1.0  0.63389  0.55217  0.59367  1.0000
  I   I178      1.0  0.66534  0.80233  0.25102  1.0000
  I   I179      1.0  0.63979  0.80329  0.58108  1.0000
  I   I180      1.0  0.65647  0.80939  0.90123  1.0000
  I   I181      1.0  0.83684  0.05276  0.19096  1.0000
  I   I182      1.0  0.85004  0.06175  0.51431  1.0000
  I   I183      1.0  0.85466  0.05805  0.82945  1.0000
  I   I184      1.0  0.87159  0.29209  0.97202  1.0000
  I   I185      1.0  0.88108  0.30046  0.31285  1.0000
  I   I186      1.0  0.87469  0.30640  0.66390  1.0000
  I   I187      1.0  0.88216  0.55545  0.23574  1.0000
  I   I188      1.0  0.90978  0.53848  0.54150  1.0000
  I   I189      1.0  0.89929  0.55453  0.88686  1.0000
  I   I190      1.0  0.79843  0.87166  0.21779  1.0000
  I   I191      1.0  0.81639  0.87378  0.55869  1.0000
  I   I192      1.0  0.81954  0.88401  0.87381  1.0000
  I   I193      1.0  0.25553  0.05399  0.02141  1.0000
  I   I194      1.0  0.20165  0.13863  0.40764  1.0000
  I   I195      1.0  0.21056  0.09710  0.71819  1.0000
  I   I196      1.0  0.25630  0.32945  0.11213  1.0000
  I   I197      1.0  0.26221  0.35336  0.45627  1.0000
  I   I198      1.0  0.27004  0.33568  0.84245  1.0000
  I   I199      1.0  0.16225  0.65075  0.32272  1.0000
  I   I200      1.0  0.16079  0.61909  0.69580  1.0000
  I   I201      1.0  0.15537  0.66684  0.96422  1.0000
  I   I202      1.0  0.24645  0.85509  0.20827  1.0000
  I   I203      1.0  0.21106  0.88619  0.53719  1.0000
  I   I204      1.0  0.21670  0.87266  0.84906  1.0000
  I   I205      1.0  0.52127  0.06386  0.22756  1.0000
  I   I206      1.0  0.51729  0.04772  0.58064  1.0000
  I   I207      1.0  0.51111  0.05752  0.89660  1.0000
  I   I208      1.0  0.42031  0.44029  0.35199  1.0000
  I   I209      1.0  0.41020  0.44189  0.69805  1.0000
  I   I210      1.0  0.40304  0.44500  0.01922  1.0000
  I   I211      1.0  0.49914  0.55148  0.44770  1.0000
  I   I212      1.0  0.46197  0.60540  0.76853  1.0000
  I   I213      1.0  0.48463  0.61544  0.07922  1.0000
  I   I214      1.0  0.51942  0.77301  0.06229  1.0000
  I   I215      1.0  0.46530  0.84245  0.33126  1.0000
  I   I216      1.0  0.49762  0.81913  0.61935  1.0000
  I   I217      1.0  0.66357  0.12764  0.30242  1.0000
  I   I218      1.0  0.65986  0.10967  0.59522  1.0000
  I   I219      1.0  0.66260  0.14433  0.94738  1.0000
  I   I220      1.0  0.70838  0.35866  0.16303  1.0000
  I   I221      1.0  0.69096  0.40132  0.47865  1.0000
  I   I222      1.0  0.70673  0.36943  0.82764  1.0000
  I   I223      1.0  0.74795  0.54738  0.01565  1.0000
  I   I224      1.0  0.72069  0.53422  0.30265  1.0000
  I   I225      1.0  0.74099  0.53590  0.62337  1.0000
  I   I226      1.0  0.74869  0.81256  0.30957  1.0000
  I   I227      1.0  0.73997  0.78670  0.61289  1.0000
  I   I228      1.0  0.75782  0.79221  0.95593  1.0000
  I   I229      1.0  0.93091  0.02687  0.22040  1.0000
  I   I230      1.0  0.95540  0.04205  0.57254  1.0000
  I   I231      1.0  0.93748  0.08536  0.90782  1.0000
  I   I232      1.0  0.96645  0.26812  0.04494  1.0000
  I   I233      1.0  0.97501  0.29810  0.38637  1.0000
  I   I234      1.0  0.97247  0.28335  0.70953  1.0000
  I   I235      1.0  0.99385  0.47136  0.28080  1.0000
  I   I236      1.0  0.00267  0.47682  0.59292  1.0000
  I   I237      1.0  0.00536  0.49118  0.95831  1.0000
  I   I238      1.0  0.87872  0.88752  0.25215  1.0000
  I   I239      1.0  0.91234  0.88157  0.62595  1.0000
  I   I240      1.0  0.89889  0.90454  0.97294  1.0000
  I   I241      1.0  0.19189  0.03645  0.12659  1.0000
  I   I242      1.0  0.17856  0.05960  0.46828  1.0000
  I   I243      1.0  0.16305  0.04470  0.79858  1.0000
  I   I244      1.0  0.28218  0.23705  0.17812  1.0000
  I   I245      1.0  0.29348  0.26054  0.52925  1.0000
  I   I246      1.0  0.28474  0.24589  0.88511  1.0000
  I   I247      1.0  0.10478  0.60587  0.40875  1.0000
  I   I248      1.0  0.08800  0.59795  0.76492  1.0000
  I   I249      1.0  0.12650  0.61965  0.07480  1.0000
  I   I250      1.0  0.21059  0.79816  0.28957  1.0000
  I   I251      1.0  0.19731  0.81841  0.65230  1.0000
  I   I252      1.0  0.18753  0.81360  0.95635  1.0000
  I   I253      1.0  0.50976  0.98589  0.33563  1.0000
  I   I254      1.0  0.47851  0.99133  0.68684  1.0000
  I   I255      1.0  0.49900  0.98721  0.99316  1.0000
  I   I256      1.0  0.39639  0.36992  0.43140  1.0000
  I   I257      1.0  0.39532  0.36481  0.75523  1.0000
  I   I258      1.0  0.38543  0.36267  0.09571  1.0000
  I   I259      1.0  0.42434  0.53442  0.52159  1.0000
  I   I260      1.0  0.43235  0.54595  0.85244  1.0000
  I   I261      1.0  0.44946  0.56136  0.17439  1.0000
  I   I262      1.0  0.41029  0.80372  0.09825  1.0000
  I   I263      1.0  0.42059  0.78317  0.40140  1.0000
  I   I264      1.0  0.46850  0.75467  0.70324  1.0000
  I   I265      1.0  0.63793  0.05871  0.36780  1.0000
  I   I266      1.0  0.61353  0.08357  0.71952  1.0000
  I   I267      1.0  0.63029  0.08317  0.01895  1.0000
  I   I268      1.0  0.68172  0.28947  0.23151  1.0000
  I   I269      1.0  0.68508  0.31462  0.57095  1.0000
  I   I270      1.0  0.68840  0.28692  0.88128  1.0000
  I   I271      1.0  0.68009  0.51749  0.09141  1.0000
  I   I272      1.0  0.66508  0.50481  0.39347  1.0000
  I   I273      1.0  0.69981  0.49756  0.75259  1.0000
  I   I274      1.0  0.70471  0.75017  0.38442  1.0000
  I   I275      1.0  0.69713  0.73825  0.72299  1.0000
  I   I276      1.0  0.71361  0.74204  0.02241  1.0000
  I   I277      1.0  0.87973  0.00031  0.34022  1.0000
  I   I278      1.0  0.89613  0.99708  0.63834  1.0000
  I   I279      1.0  0.91561  0.00732  0.96803  1.0000
  I   I280      1.0  0.90671  0.24202  0.13122  1.0000
  I   I281      1.0  0.92672  0.24546  0.45904  1.0000
  I   I282      1.0  0.93745  0.23213  0.80590  1.0000
  I   I283      1.0  0.90594  0.48722  0.36023  1.0000
  I   I284      1.0  0.92634  0.48096  0.68160  1.0000
  I   I285      1.0  0.91811  0.48373  0.02618  1.0000
  I   I286      1.0  0.85243  0.82462  0.35475  1.0000
  I   I287      1.0  0.86373  0.83913  0.70779  1.0000
  I   I288      1.0  0.86897  0.83311  0.00654  1.0000
  I   I289      1.0  0.05664  0.15838  0.01859  1.0000
  I   I290      1.0  0.02020  0.19601  0.28122  1.0000
  I   I291      1.0  0.01716  0.18353  0.65785  1.0000
  I   I292      1.0  0.10809  0.29391  0.06795  1.0000
  I   I293      1.0  0.14072  0.28794  0.40088  1.0000
  I   I294      1.0  0.14555  0.27872  0.69613  1.0000
  I   I295      1.0  0.97630  0.71920  0.25203  1.0000
  I   I296      1.0  0.97879  0.72992  0.57763  1.0000
  I   I297      1.0  0.97146  0.71170  0.91358  1.0000
  I   I298      1.0  0.05482  0.90373  0.15459  1.0000
  I   I299      1.0  0.04375  0.90537  0.45991  1.0000
  I   I300      1.0  0.03434  0.92332  0.79941  1.0000
  I   I301      1.0  0.33517  0.10957  0.16482  1.0000
  I   I302      1.0  0.33882  0.08474  0.46680  1.0000
  I   I303      1.0  0.33928  0.06992  0.82866  1.0000
  I   I304      1.0  0.23478  0.45758  0.29257  1.0000
  I   I305      1.0  0.23613  0.47817  0.60758  1.0000
  I   I306      1.0  0.23832  0.43548  0.94118  1.0000
  I   I307      1.0  0.30086  0.69347  0.35301  1.0000
  I   I308      1.0  0.27728  0.69457  0.67221  1.0000
  I   I309      1.0  0.30223  0.64985  0.06258  1.0000
  I   I310      1.0  0.38636  0.88381  0.97858  1.0000
  I   I311      1.0  0.28941  0.01201  0.29644  1.0000
  I   I312      1.0  0.30817  0.92325  0.62577  1.0000
  I   I313      1.0  0.48440  0.19545  0.21872  1.0000
  I   I314      1.0  0.47042  0.21149  0.52335  1.0000
  I   I315      1.0  0.47663  0.21095  0.87908  1.0000
  I   I316      1.0  0.52559  0.41838  0.07200  1.0000
  I   I317      1.0  0.52395  0.41661  0.38750  1.0000
  I   I318      1.0  0.52766  0.42618  0.75541  1.0000
  I   I319      1.0  0.55781  0.66925  0.88146  1.0000
  I   I320      1.0  0.53784  0.65310  0.22854  1.0000
  I   I321      1.0  0.55686  0.64618  0.58320  1.0000
  I   I322      1.0  0.56375  0.87872  0.20782  1.0000
  I   I323      1.0  0.56423  0.90974  0.55607  1.0000
  I   I324      1.0  0.56984  0.90100  0.86920  1.0000
  I   I325      1.0  0.75624  0.13272  0.17516  1.0000
  I   I326      1.0  0.77731  0.17378  0.50617  1.0000
  I   I327      1.0  0.74948  0.14356  0.80895  1.0000
  I   I328      1.0  0.78045  0.38670  0.97393  1.0000
  I   I329      1.0  0.78276  0.36846  0.30096  1.0000
  I   I330      1.0  0.79240  0.41448  0.63079  1.0000
  I   I331      1.0  0.85549  0.65531  0.22011  1.0000
  I   I332      1.0  0.86837  0.64411  0.55996  1.0000
  I   I333      1.0  0.86622  0.66591  0.85932  1.0000
  I   I334      1.0  0.70034  0.93854  0.17149  1.0000
  I   I335      1.0  0.70630  0.96229  0.53992  1.0000
  I   I336      1.0  0.71748  0.96145  0.85754  1.0000
  I   I337      1.0  0.07396  0.22175  0.88640  1.0000
  I   I338      1.0  0.07321  0.23106  0.19346  1.0000
  I   I339      1.0  0.05254  0.24828  0.57638  1.0000
  I   I340      1.0  0.09353  0.37581  0.96250  1.0000
  I   I341      1.0  0.10572  0.38631  0.29904  1.0000
  I   I342      1.0  0.11393  0.38417  0.65138  1.0000
  I   I343      1.0  0.98411  0.79970  0.17211  1.0000
  I   I344      1.0  0.01262  0.79129  0.50752  1.0000
  I   I345      1.0  0.98710  0.79148  0.84608  1.0000
  I   I346      1.0  0.06121  0.98586  0.06477  1.0000
  I   I347      1.0  0.05495  0.96473  0.35023  1.0000
  I   I348      1.0  0.05042  0.98869  0.70093  1.0000
  I   I349      1.0  0.36211  0.17067  0.07163  1.0000
  I   I350      1.0  0.36400  0.15362  0.38703  1.0000
  I   I351      1.0  0.34083  0.15376  0.74584  1.0000
  I   I352      1.0  0.22805  0.52554  0.18268  1.0000
  I   I353      1.0  0.25848  0.55032  0.51798  1.0000
  I   I354      1.0  0.22005  0.52875  0.88101  1.0000
  I   I355      1.0  0.35267  0.73398  0.28096  1.0000
  I   I356      1.0  0.33152  0.74063  0.59614  1.0000
  I   I357      1.0  0.29403  0.73104  0.93238  1.0000
  I   I358      1.0  0.41180  0.93260  0.84394  1.0000
  I   I359      1.0  0.32719  0.93880  0.17566  1.0000
  I   I360      1.0  0.34691  0.96923  0.53462  1.0000
  I   I361      1.0  0.50629  0.26360  0.12058  1.0000
  I   I362      1.0  0.52861  0.24909  0.43782  1.0000
  I   I363      1.0  0.50550  0.27283  0.76731  1.0000
  I   I364      1.0  0.55903  0.46775  0.95576  1.0000
  I   I365      1.0  0.55874  0.47963  0.28885  1.0000
  I   I366      1.0  0.55775  0.49628  0.66631  1.0000
  I   I367      1.0  0.63012  0.67653  0.79176  1.0000
  I   I368      1.0  0.59089  0.70634  0.15900  1.0000
  I   I369      1.0  0.61554  0.68001  0.48934  1.0000
  I   I370      1.0  0.60939  0.93360  0.12686  1.0000
  I   I371      1.0  0.63379  0.93418  0.47953  1.0000
  I   I372      1.0  0.63621  0.93202  0.78149  1.0000
  I   I373      1.0  0.80143  0.18832  0.07736  1.0000
  I   I374      1.0  0.84359  0.18937  0.39010  1.0000
  I   I375      1.0  0.80222  0.18535  0.70653  1.0000
  I   I376      1.0  0.83340  0.43518  0.88502  1.0000
  I   I377      1.0  0.81200  0.43625  0.21444  1.0000
  I   I378      1.0  0.86904  0.43452  0.57705  1.0000
  I   I379      1.0  0.92653  0.65017  0.11074  1.0000
  I   I380      1.0  0.93467  0.64594  0.44345  1.0000
  I   I381      1.0  0.96619  0.63263  0.79091  1.0000
  I   I382      1.0  0.72820  0.00788  0.10766  1.0000
  I   I383      1.0  0.74173  0.01467  0.43904  1.0000
  I   I384      1.0  0.75362  0.02761  0.78259  1.0000
