data_image0
_chemical_formula_structural       Ti96I384
_chemical_formula_sum              "Ti96 I384"
_cell_length_a       79.8196
_cell_length_b       79.3765
_cell_length_c       38.8933
_cell_angle_alpha    88.7757
_cell_angle_beta     88.7757
_cell_angle_gamma    62.1586

_space_group_name_H-M_alt    "P 1"
_space_group_IT_number       1

loop_
  _space_group_symop_operation_xyz
  'x, y, z'

loop_
  _atom_site_type_symbol
  _atom_site_label
  _atom_site_symmetry_multiplicity
  _atom_site_fract_x
  _atom_site_fract_y
  _atom_site_fract_z
  _atom_site_occupancy
  Ti  Ti1       1.0  0.58220  0.66209  0.18956  1.0000
  Ti  Ti2       1.0  0.61946  0.94734  0.57912  1.0000
  Ti  Ti3       1.0  0.96712  0.01800  0.28519  1.0000
  Ti  Ti4       1.0  0.45283  0.73424  0.99237  1.0000
  Ti  Ti5       1.0  0.95833  0.72202  0.72398  1.0000
  Ti  Ti6       1.0  0.11818  0.90159  0.44969  1.0000
  Ti  Ti7       1.0  0.32596  0.21725  0.88043  1.0000
  Ti  Ti8       1.0  0.61038  0.36575  0.75206  1.0000
  Ti  Ti9       1.0  0.09432  0.10727  0.64549  1.0000
  Ti  Ti10      1.0  0.89277  0.37889  0.17948  1.0000
  Ti  Ti11      1.0  0.16906  0.87982  0.68750  1.0000
  Ti  Ti12      1.0  0.27388  0.99680  0.19851  1.0000
  Ti  Ti13      1.0  0.52340  0.60866  0.27354  1.0000
  Ti  Ti14      1.0  0.48669  0.76560  0.99066  1.0000
  Ti  Ti15      1.0  0.74854  0.19334  0.28626  1.0000
  Ti  Ti16      1.0  0.88580  0.42693  0.68274  1.0000
  Ti  Ti17      1.0  0.36395  0.11828  0.43556  1.0000
  Ti  Ti18      1.0  0.62447  0.24723  0.52950  1.0000
  Ti  Ti19      1.0  0.05641  0.14714  0.08806  1.0000
  Ti  Ti20      1.0  0.82030  0.59831  0.61838  1.0000
  Ti  Ti21      1.0  0.64892  0.35939  0.76709  1.0000
  Ti  Ti22      1.0  0.52527  0.23805  0.07620  1.0000
  Ti  Ti23      1.0  0.38757  0.28725  0.60690  1.0000
  Ti  Ti24      1.0  0.74017  0.54966  0.32470  1.0000
  Ti  Ti25      1.0  0.87418  0.09334  0.88329  1.0000
  Ti  Ti26      1.0  0.18226  0.79786  0.55746  1.0000
  Ti  Ti27      1.0  0.84270  0.84749  0.60107  1.0000
  Ti  Ti28      1.0  0.34973  0.12431  0.03005  1.0000
  Ti  Ti29      1.0  0.09274  0.63310  0.58792  1.0000
  Ti  Ti30      1.0  0.33768  0.62431  0.74303  1.0000
  Ti  Ti31      1.0  0.87840  0.87747  0.41148  1.0000
  Ti  Ti32      1.0  0.23982  0.15485  0.77086  1.0000
  Ti  Ti33      1.0  0.73642  0.36490  0.16702  1.0000
  Ti  Ti34      1.0  0.71695  0.61688  0.76958  1.0000
  Ti  Ti35      1.0  0.53940  0.17174  0.74292  1.0000
  Ti  Ti36      1.0  0.00611  0.94898  0.91486  1.0000
  Ti  Ti37      1.0  0.39910  0.95028  0.33274  1.0000
  Ti  Ti38      1.0  0.53421  0.58312  0.62379  1.0000
  Ti  Ti39      1.0  0.94070  0.33421  0.16260  1.0000
  Ti  Ti40      1.0  0.57322  0.01261  0.08815  1.0000
  Ti  Ti41      1.0  0.01069  0.17952  0.38045  1.0000
  Ti  Ti42      1.0  0.34967  0.35881  0.05108  1.0000
  Ti  Ti43      1.0  0.40416  0.60711  0.92076  1.0000
  Ti  Ti44      1.0  0.24241  0.46819  0.35028  1.0000
  Ti  Ti45      1.0  0.90256  0.09239  0.42252  1.0000
  Ti  Ti46      1.0  0.69662  0.83470  0.18748  1.0000
  Ti  Ti47      1.0  0.33158  0.46044  0.61561  1.0000
  Ti  Ti48      1.0  0.57396  0.79913  0.23602  1.0000
  Ti  Ti49      1.0  0.68693  0.94960  0.18114  1.0000
  Ti  Ti50      1.0  0.06774  0.21358  0.19250  1.0000
  Ti  Ti51      1.0  0.62215  0.99034  0.61943  1.0000
  Ti  Ti52      1.0  0.21214  0.56187  0.27034  1.0000
  Ti  Ti53      1.0  0.68211  0.18269  0.13994  1.0000
  Ti  Ti54      1.0  0.75517  0.95211  0.84465  1.0000
  Ti  Ti55      1.0  0.86457  0.68003  0.26682  1.0000
  Ti  Ti56      1.0  0.74326  0.95609  0.29529  1.0000
  Ti  Ti57      1.0  0.07243  0.13216  0.58079  1.0000
  Ti  Ti58      1.0  0.96051  0.94737  0.37600  1.0000
  Ti  Ti59      1.0  0.85703  0.44681  0.79098  1.0000
  Ti  Ti60      1.0  0.99703  0.17823  0.01811  1.0000
  Ti  Ti61      1.0  0.55910  0.09302  0.36238  1.0000
  Ti  Ti62      1.0  0.54963  0.58144  0.35634  1.0000
  Ti  Ti63      1.0  0.05876  0.79079  0.76918  1.0000
  Ti  Ti64      1.0  0.60469  0.22798  0.53994  1.0000
  Ti  Ti65      1.0  0.03403  0.28436  0.81007  1.0000
  Ti  Ti66      1.0  0.23406  0.93751  0.42396  1.0000
  Ti  Ti67      1.0  0.49034  0.76460  0.78618  1.0000
  Ti  Ti68      1.0  0.90709  0.74822  0.41855  1.0000
  Ti  Ti69      1.0  0.20378  0.81383  0.47501  1.0000
  Ti  Ti70      1.0  0.21717  0.72610  0.05700  1.0000
  Ti  Ti71      1.0  0.72346  0.46637  0.16138  1.0000
  Ti  Ti72      1.0  0.30024  0.44561  0.65719  1.0000
  Ti  Ti73      1.0  0.43836  0.59522  0.48229  1.0000
  Ti  Ti74      1.0  0.90439  0.07588  0.96023  1.0000
  Ti  Ti75      1.0  0.67093  0.93405  0.25532  1.0000
  Ti  Ti76      1.0  0.38435  0.84642  0.65620  1.0000
  Ti  Ti77      1.0  0.79949  0.17310  0.27365  1.0000
  Ti  Ti78      1.0  0.12487  0.57910  0.63162  1.0000
  Ti  Ti79      1.0  0.73652  0.10332  0.60563  1.0000
  Ti  Ti80      1.0  0.06370  0.53918  0.15638  1.0000
  Ti  Ti81      1.0  0.45462  0.26013  0.51299  1.0000
  Ti  Ti82      1.0  0.61993  0.60457  0.99230  1.0000
  Ti  Ti83      1.0  0.88322  0.14448  0.49360  1.0000
  Ti  Ti84      1.0  0.03958  0.89522  0.94803  1.0000
  Ti  Ti85      1.0  0.41536  0.92398  0.26193  1.0000
  Ti  Ti86      1.0  0.31645  0.17212  0.82783  1.0000
  Ti  Ti87      1.0  0.58393  0.78049  0.70925  1.0000
  Ti  Ti88      1.0  0.74131  0.24333  0.88279  1.0000
  Ti  Ti89      1.0  0.88237  0.21484  0.90374  1.0000
  Ti  Ti90      1.0  0.39317  0.07599  0.50255  1.0000
  Ti  Ti91      1.0  0.49279  0.39994  0.17605  1.0000
  Ti  Ti92      1.0  0.57870  0.59554  0.03679  1.0000
  Ti  Ti93      1.0  0.34223  0.91366  0.85189  1.0000
  Ti  Ti94      1.0  0.61141  0.79958  0.25104  1.0000
  Ti  Ti95      1.0  0.22109  0.85846  0.12744  1.0000
  Ti  Ti96      1.0  0.14365  0.17064  0.97054  1.0000
  I   I1        1.0  0.33752  0.48953  0.60628  1.0000
  I   I2        1.0  0.61821  0.02478  0.60030  1.0000
  I   I3        1.0  0.64794  0.95149  0.20092  1.0000
  I   I4        1.0  0.66028  0.21530  0.17699  1.0000
  I   I5        1.0  0.09943  0.91129  0.39515  1.0000
  I   I6        1.0  0.72890  0.97813  0.89214  1.0000
  I   I7        1.0  0.65252  0.33186  0.81195  1.0000
  I   I8        1.0  0.75686  0.93526  0.24051  1.0000
  I   I9        1.0  0.08932  0.10743  0.70998  1.0000
  I   I10       1.0  0.57158  0.03215  0.03036  1.0000
  I   I11       1.0  0.19297  0.86589  0.74680  1.0000
  I   I12       1.0  0.92178  0.73112  0.71235  1.0000
  I   I13       1.0  0.56127  0.58681  0.27732  1.0000
  I   I14       1.0  0.02506  0.80878  0.73479  1.0000
  I   I15       1.0  0.72086  0.19347  0.25610  1.0000
  I   I16       1.0  0.59733  0.98015  0.05837  1.0000
  I   I17       1.0  0.25814  0.93585  0.37851  1.0000
  I   I18       1.0  0.57709  0.22221  0.57615  1.0000
  I   I19       1.0  0.09524  0.77814  0.78243  1.0000
  I   I20       1.0  0.15183  0.89906  0.75201  1.0000
  I   I21       1.0  0.57956  0.39337  0.72715  1.0000
  I   I22       1.0  0.47897  0.22300  0.50014  1.0000
  I   I23       1.0  0.73450  0.27234  0.84435  1.0000
  I   I24       1.0  0.23385  0.69196  0.08114  1.0000
  I   I25       1.0  0.86973  0.06143  0.87732  1.0000
  I   I26       1.0  0.69435  0.91243  0.20284  1.0000
  I   I27       1.0  0.52149  0.17625  0.80262  1.0000
  I   I28       1.0  0.36533  0.14355  0.05565  1.0000
  I   I29       1.0  0.13145  0.54480  0.63103  1.0000
  I   I30       1.0  0.30271  0.63347  0.74540  1.0000
  I   I31       1.0  0.09205  0.50373  0.16916  1.0000
  I   I32       1.0  0.43231  0.25771  0.56488  1.0000
  I   I33       1.0  0.75693  0.08398  0.65461  1.0000
  I   I34       1.0  0.56528  0.14002  0.75929  1.0000
  I   I35       1.0  0.03000  0.87466  0.98821  1.0000
  I   I36       1.0  0.74598  0.62428  0.74539  1.0000
  I   I37       1.0  0.41538  0.94282  0.39460  1.0000
  I   I38       1.0  0.88123  0.39831  0.12152  1.0000
  I   I39       1.0  0.44982  0.89887  0.24956  1.0000
  I   I40       1.0  0.24778  0.43718  0.32598  1.0000
  I   I41       1.0  0.06257  0.23047  0.13039  1.0000
  I   I42       1.0  0.54192  0.00933  0.09563  1.0000
  I   I43       1.0  0.99523  0.94336  0.37140  1.0000
  I   I44       1.0  0.87555  0.08533  0.40459  1.0000
  I   I45       1.0  0.85540  0.17816  0.49990  1.0000
  I   I46       1.0  0.21629  0.83422  0.08704  1.0000
  I   I47       1.0  0.37191  0.44199  0.61947  1.0000
  I   I48       1.0  0.60678  0.77510  0.20081  1.0000
  I   I49       1.0  0.72281  0.94413  0.16821  1.0000
  I   I50       1.0  0.65584  0.92104  0.58221  1.0000
  I   I51       1.0  0.60841  0.94439  0.51750  1.0000
  I   I52       1.0  0.03332  0.54015  0.19390  1.0000
  I   I53       1.0  0.71204  0.15496  0.11164  1.0000
  I   I54       1.0  0.78555  0.92055  0.82605  1.0000
  I   I55       1.0  0.29933  0.20128  0.87751  1.0000
  I   I56       1.0  0.64901  0.33026  0.72709  1.0000
  I   I57       1.0  0.20003  0.86487  0.18394  1.0000
  I   I58       1.0  0.93201  0.37147  0.16655  1.0000
  I   I59       1.0  0.92053  0.42182  0.66586  1.0000
  I   I60       1.0  0.97110  0.19386  0.07658  1.0000
  I   I61       1.0  0.56384  0.54703  0.36640  1.0000
  I   I62       1.0  0.48878  0.61228  0.29098  1.0000
  I   I63       1.0  0.79373  0.60895  0.56752  1.0000
  I   I64       1.0  0.84451  0.42543  0.81972  1.0000
  I   I65       1.0  0.59180  0.01885  0.13647  1.0000
  I   I66       1.0  0.31576  0.15549  0.02228  1.0000
  I   I67       1.0  0.08613  0.12616  0.04947  1.0000
  I   I68       1.0  0.84631  0.56187  0.62226  1.0000
  I   I69       1.0  0.18271  0.76493  0.56893  1.0000
  I   I70       1.0  0.23869  0.72475  0.00645  1.0000
  I   I71       1.0  0.41231  0.26781  0.66071  1.0000
  I   I72       1.0  0.31967  0.43124  0.71376  1.0000
  I   I73       1.0  0.82022  0.88738  0.59381  1.0000
  I   I74       1.0  0.19563  0.82265  0.54526  1.0000
  I   I75       1.0  0.23334  0.78209  0.49608  1.0000
  I   I76       1.0  0.77765  0.19072  0.32838  1.0000
  I   I77       1.0  0.78200  0.17616  0.21434  1.0000
  I   I78       1.0  0.91267  0.85495  0.38880  1.0000
  I   I79       1.0  0.72173  0.39670  0.13772  1.0000
  I   I80       1.0  0.60102  0.67416  0.14387  1.0000
  I   I81       1.0  0.22384  0.15910  0.83160  1.0000
  I   I82       1.0  0.65780  0.57514  0.99442  1.0000
  I   I83       1.0  0.90312  0.16057  0.46966  1.0000
  I   I84       1.0  0.04340  0.93745  0.95383  1.0000
  I   I85       1.0  0.41062  0.90597  0.31727  1.0000
  I   I86       1.0  0.34774  0.10593  0.08593  1.0000
  I   I87       1.0  0.95407  0.32749  0.23117  1.0000
  I   I88       1.0  0.90515  0.34113  0.18277  1.0000
  I   I89       1.0  0.72999  0.58093  0.76094  1.0000
  I   I90       1.0  0.04469  0.19908  0.20469  1.0000
  I   I91       1.0  0.51674  0.37316  0.13163  1.0000
  I   I92       1.0  0.58584  0.56940  0.99438  1.0000
  I   I93       1.0  0.27153  0.46847  0.32065  1.0000
  I   I94       1.0  0.59724  0.78165  0.30213  1.0000
  I   I95       1.0  0.71395  0.81308  0.24883  1.0000
  I   I96       1.0  0.56277  0.22146  0.07561  1.0000
  I   I97       1.0  0.96863  0.01959  0.35335  1.0000
  I   I98       1.0  0.60627  0.63229  0.22277  1.0000
  I   I99       1.0  0.62586  0.97728  0.54815  1.0000
  I   I100      1.0  0.49131  0.79054  0.94758  1.0000
  I   I101      1.0  0.77442  0.22626  0.90974  1.0000
  I   I102      1.0  0.98185  0.71280  0.66921  1.0000
  I   I103      1.0  0.29403  0.18286  0.77205  1.0000
  I   I104      1.0  0.87232  0.69537  0.32756  1.0000
  I   I105      1.0  0.05682  0.15921  0.54025  1.0000
  I   I106      1.0  0.29311  0.97102  0.24994  1.0000
  I   I107      1.0  0.85361  0.39881  0.18009  1.0000
  I   I108      1.0  0.24219  0.01689  0.23956  1.0000
  I   I109      1.0  0.76159  0.22205  0.25744  1.0000
  I   I110      1.0  0.51921  0.60095  0.39302  1.0000
  I   I111      1.0  0.84768  0.60574  0.59390  1.0000
  I   I112      1.0  0.61345  0.24408  0.59829  1.0000
  I   I113      1.0  0.03379  0.27720  0.87771  1.0000
  I   I114      1.0  0.35544  0.10762  0.37697  1.0000
  I   I115      1.0  0.48902  0.74099  0.74135  1.0000
  I   I116      1.0  0.46815  0.80011  0.78843  1.0000
  I   I117      1.0  0.87392  0.77632  0.41951  1.0000
  I   I118      1.0  0.11303  0.20131  0.00096  1.0000
  I   I119      1.0  0.47892  0.74661  0.83155  1.0000
  I   I120      1.0  0.31975  0.46092  0.54892  1.0000
  I   I121      1.0  0.44143  0.62278  0.51305  1.0000
  I   I122      1.0  0.83988  0.11751  0.85547  1.0000
  I   I123      1.0  0.69473  0.94868  0.26870  1.0000
  I   I124      1.0  0.34281  0.58924  0.77893  1.0000
  I   I125      1.0  0.41914  0.82982  0.63441  1.0000
  I   I126      1.0  0.14852  0.57964  0.58358  1.0000
  I   I127      1.0  0.73752  0.34239  0.11500  1.0000
  I   I128      1.0  0.49066  0.77601  0.05024  1.0000
  I   I129      1.0  0.39312  0.31075  0.57330  1.0000
  I   I130      1.0  0.96742  0.95696  0.90200  1.0000
  I   I131      1.0  0.57704  0.61882  0.97035  1.0000
  I   I132      1.0  0.53151  0.17822  0.67370  1.0000
  I   I133      1.0  0.97310  0.32849  0.14674  1.0000
  I   I134      1.0  0.57388  0.56580  0.62581  1.0000
  I   I135      1.0  0.23857  0.94259  0.49328  1.0000
  I   I136      1.0  0.38037  0.32950  0.06675  1.0000
  I   I137      1.0  0.21754  0.55322  0.33405  1.0000
  I   I138      1.0  0.87152  0.22910  0.83430  1.0000
  I   I139      1.0  0.45797  0.41026  0.15106  1.0000
  I   I140      1.0  0.54324  0.61950  0.03677  1.0000
  I   I141      1.0  0.36564  0.89948  0.79790  1.0000
  I   I142      1.0  0.63035  0.79771  0.30753  1.0000
  I   I143      1.0  0.93011  0.03416  0.27989  1.0000
  I   I144      1.0  0.52026  0.20790  0.09772  1.0000
  I   I145      1.0  0.56654  0.68885  0.23455  1.0000
  I   I146      1.0  0.59931  0.93230  0.60658  1.0000
  I   I147      1.0  0.97978  0.02295  0.22747  1.0000
  I   I148      1.0  0.17557  0.58950  0.27628  1.0000
  I   I149      1.0  0.96981  0.68782  0.74188  1.0000
  I   I150      1.0  0.15321  0.87463  0.44659  1.0000
  I   I151      1.0  0.83511  0.71251  0.23722  1.0000
  I   I152      1.0  0.59517  0.34630  0.72416  1.0000
  I   I153      1.0  0.11649  0.07408  0.63190  1.0000
  I   I154      1.0  0.38161  0.63995  0.94700  1.0000
  I   I155      1.0  0.15865  0.85219  0.70086  1.0000
  I   I156      1.0  0.99823  0.20959  0.99487  1.0000
  I   I157      1.0  0.81596  0.19251  0.25828  1.0000
  I   I158      1.0  0.04677  0.77528  0.81297  1.0000
  I   I159      1.0  0.56013  0.12686  0.36474  1.0000
  I   I160      1.0  0.60743  0.20488  0.48859  1.0000
  I   I161      1.0  0.39909  0.08644  0.43833  1.0000
  I   I162      1.0  0.62421  0.26938  0.48061  1.0000
  I   I163      1.0  0.03692  0.13001  0.07876  1.0000
  I   I164      1.0  0.72733  0.83106  0.15798  1.0000
  I   I165      1.0  0.68566  0.35009  0.77194  1.0000
  I   I166      1.0  0.15049  0.19597  0.94416  1.0000
  I   I167      1.0  0.46465  0.28583  0.53189  1.0000
  I   I168      1.0  0.77254  0.52705  0.34839  1.0000
  I   I169      1.0  0.89910  0.04714  0.97783  1.0000
  I   I170      1.0  0.90253  0.10260  0.90178  1.0000
  I   I171      1.0  0.86638  0.83776  0.64876  1.0000
  I   I172      1.0  0.38170  0.81702  0.67013  1.0000
  I   I173      1.0  0.08691  0.59473  0.61202  1.0000
  I   I174      1.0  0.35401  0.61010  0.68569  1.0000
  I   I175      1.0  0.89123  0.88840  0.46265  1.0000
  I   I176      1.0  0.25237  0.18132  0.78461  1.0000
  I   I177      1.0  0.70573  0.12767  0.64298  1.0000
  I   I178      1.0  0.62190  0.61448  0.93093  1.0000
  I   I179      1.0  0.91342  0.10526  0.37114  1.0000
  I   I180      1.0  0.07372  0.88853  0.94118  1.0000
  I   I181      1.0  0.39240  0.92010  0.21303  1.0000
  I   I182      1.0  0.30334  0.24924  0.91646  1.0000
  I   I183      1.0  0.61066  0.78234  0.67968  1.0000
  I   I184      1.0  0.71972  0.25553  0.94043  1.0000
  I   I185      1.0  0.89599  0.17875  0.92211  1.0000
  I   I186      1.0  0.32923  0.39649  0.07382  1.0000
  I   I187      1.0  0.58049  0.57133  0.09138  1.0000
  I   I188      1.0  0.21403  0.48911  0.31061  1.0000
  I   I189      1.0  0.60757  0.74739  0.73968  1.0000
  I   I190      1.0  0.67859  0.86146  0.13949  1.0000
  I   I191      1.0  0.35259  0.11187  0.50281  1.0000
  I   I192      1.0  0.94634  0.06061  0.28065  1.0000
  I   I193      1.0  0.10452  0.61844  0.65250  1.0000
  I   I194      1.0  0.81157  0.61577  0.67469  1.0000
  I   I195      1.0  0.96646  0.98613  0.27209  1.0000
  I   I196      1.0  0.43859  0.73122  0.05345  1.0000
  I   I197      1.0  0.94635  0.97469  0.41868  1.0000
  I   I198      1.0  0.12622  0.92957  0.47168  1.0000
  I   I199      1.0  0.24720  0.11954  0.76984  1.0000
  I   I200      1.0  0.71507  0.98713  0.29692  1.0000
  I   I201      1.0  0.06033  0.10912  0.61340  1.0000
  I   I202      1.0  0.87126  0.46178  0.67219  1.0000
  I   I203      1.0  0.19194  0.79440  0.62403  1.0000
  I   I204      1.0  0.26262  0.98065  0.15335  1.0000
  I   I205      1.0  0.56528  0.59133  0.40586  1.0000
  I   I206      1.0  0.48169  0.71100  0.96172  1.0000
  I   I207      1.0  0.72986  0.19511  0.34438  1.0000
  I   I208      1.0  0.86723  0.41039  0.65514  1.0000
  I   I209      1.0  0.36966  0.06595  0.48151  1.0000
  I   I210      1.0  0.75506  0.07338  0.55898  1.0000
  I   I211      1.0  0.22381  0.74615  0.09761  1.0000
  I   I212      1.0  0.04497  0.82594  0.80196  1.0000
  I   I213      1.0  0.21330  0.84245  0.45758  1.0000
  I   I214      1.0  0.50313  0.25231  0.02352  1.0000
  I   I215      1.0  0.35401  0.30959  0.62435  1.0000
  I   I216      1.0  0.33144  0.94575  0.81770  1.0000
  I   I217      1.0  0.88607  0.08564  0.81538  1.0000
  I   I218      1.0  0.67038  0.90592  0.29531  1.0000
  I   I219      1.0  0.41033  0.58541  0.49188  1.0000
  I   I220      1.0  0.82783  0.14496  0.29937  1.0000
  I   I221      1.0  0.08344  0.62337  0.52463  1.0000
  I   I222      1.0  0.38919  0.85198  0.71779  1.0000
  I   I223      1.0  0.84475  0.89788  0.37001  1.0000
  I   I224      1.0  0.22527  0.15938  0.71317  1.0000
  I   I225      1.0  0.76467  0.35566  0.20947  1.0000
  I   I226      1.0  0.62568  0.62782  0.03524  1.0000
  I   I227      1.0  0.56055  0.18776  0.75691  1.0000
  I   I228      1.0  0.03469  0.89204  0.88256  1.0000
  I   I229      1.0  0.93703  0.95635  0.32154  1.0000
  I   I230      1.0  0.52531  0.56464  0.67539  1.0000
  I   I231      1.0  0.88985  0.40454  0.22452  1.0000
  I   I232      1.0  0.52088  0.73719  0.98616  1.0000
  I   I233      1.0  0.01593  0.14454  0.38212  1.0000
  I   I234      1.0  0.32510  0.14558  0.42293  1.0000
  I   I235      1.0  0.43437  0.60873  0.90763  1.0000
  I   I236      1.0  0.34925  0.93163  0.91718  1.0000
  I   I237      1.0  0.50084  0.42652  0.15419  1.0000
  I   I238      1.0  0.25274  0.85678  0.13764  1.0000
  I   I239      1.0  0.14237  0.14245  0.93249  1.0000
  I   I240      1.0  0.55471  0.81237  0.17968  1.0000
  I   I241      1.0  0.55357  0.65785  0.17978  1.0000
  I   I242      1.0  0.58382  0.99926  0.61669  1.0000
  I   I243      1.0  0.93599  0.75182  0.40190  1.0000
  I   I244      1.0  0.72973  0.21917  0.86147  1.0000
  I   I245      1.0  0.69091  0.17227  0.20750  1.0000
  I   I246      1.0  0.09694  0.89106  0.49605  1.0000
  I   I247      1.0  0.34363  0.19879  0.94114  1.0000
  I   I248      1.0  0.62645  0.38470  0.70851  1.0000
  I   I249      1.0  0.06602  0.15037  0.63799  1.0000
  I   I250      1.0  0.82800  0.48621  0.78444  1.0000
  I   I251      1.0  0.19007  0.89509  0.65763  1.0000
  I   I252      1.0  0.96478  0.17815  0.99774  1.0000
  I   I253      1.0  0.52689  0.63297  0.31568  1.0000
  I   I254      1.0  0.45666  0.76689  0.96487  1.0000
  I   I255      1.0  0.52740  0.10407  0.40105  1.0000
  I   I256      1.0  0.03351  0.25775  0.77025  1.0000
  I   I257      1.0  0.37142  0.95592  0.28934  1.0000
  I   I258      1.0  0.57700  0.26461  0.54253  1.0000
  I   I259      1.0  0.52250  0.76525  0.77447  1.0000
  I   I260      1.0  0.68835  0.80692  0.16720  1.0000
  I   I261      1.0  0.63380  0.39206  0.79765  1.0000
  I   I262      1.0  0.50452  0.27106  0.10564  1.0000
  I   I263      1.0  0.71869  0.44346  0.12635  1.0000
  I   I264      1.0  0.00186  0.95383  0.84814  1.0000
  I   I265      1.0  0.93827  0.05262  0.93857  1.0000
  I   I266      1.0  0.14997  0.82796  0.55672  1.0000
  I   I267      1.0  0.46848  0.56387  0.49384  1.0000
  I   I268      1.0  0.20024  0.96975  0.42217  1.0000
  I   I269      1.0  0.14902  0.57964  0.67169  1.0000
  I   I270      1.0  0.35503  0.10668  0.97527  1.0000
  I   I271      1.0  0.85978  0.86077  0.44205  1.0000
  I   I272      1.0  0.44822  0.26640  0.44327  1.0000
  I   I273      1.0  0.70331  0.36364  0.19228  1.0000
  I   I274      1.0  0.99898  0.19028  0.31733  1.0000
  I   I275      1.0  0.81344  0.85162  0.63634  1.0000
  I   I276      1.0  0.00583  0.92927  0.97525  1.0000
  I   I277      1.0  0.61897  0.58159  0.04677  1.0000
  I   I278      1.0  0.52410  0.60702  0.67222  1.0000
  I   I279      1.0  0.24979  0.45955  0.41427  1.0000
  I   I280      1.0  0.23214  0.57641  0.23984  1.0000
  I   I281      1.0  0.98815  0.20389  0.42858  1.0000
  I   I282      1.0  0.33128  0.34166  0.01361  1.0000
  I   I283      1.0  0.41037  0.57975  0.96739  1.0000
  I   I284      1.0  0.75185  0.57629  0.31161  1.0000
  I   I285      1.0  0.56837  0.81503  0.72869  1.0000
  I   I286      1.0  0.19586  0.88797  0.09324  1.0000
  I   I287      1.0  0.28560  0.42356  0.62597  1.0000
  I   I288      1.0  0.57961  0.83093  0.25852  1.0000
  I   I289      1.0  0.39200  0.59073  0.87778  1.0000
  I   I290      1.0  0.40551  0.09058  0.55427  1.0000
  I   I291      1.0  0.61545  0.98675  0.67968  1.0000
  I   I292      1.0  0.21173  0.53633  0.23025  1.0000
  I   I293      1.0  0.65422  0.17013  0.13440  1.0000
  I   I294      1.0  0.77174  0.97289  0.85113  1.0000
  I   I295      1.0  0.33380  0.19608  0.81504  1.0000
  I   I296      1.0  0.74702  0.93220  0.35371  1.0000
  I   I297      1.0  0.08492  0.10276  0.53376  1.0000
  I   I298      1.0  0.94070  0.92881  0.39381  1.0000
  I   I299      1.0  0.84632  0.43991  0.72211  1.0000
  I   I300      1.0  0.32385  0.89348  0.86697  1.0000
  I   I301      1.0  0.59605  0.07056  0.36556  1.0000
  I   I302      1.0  0.52776  0.62418  0.21687  1.0000
  I   I303      1.0  0.07233  0.26451  0.80013  1.0000
  I   I304      1.0  0.64537  0.25931  0.56292  1.0000
  I   I305      1.0  0.89019  0.42327  0.75662  1.0000
  I   I306      1.0  0.35226  0.23058  0.87462  1.0000
  I   I307      1.0  0.28058  0.02566  0.17741  1.0000
  I   I308      1.0  0.10245  0.19089  0.21402  1.0000
  I   I309      1.0  0.59911  0.36881  0.82020  1.0000
  I   I310      1.0  0.66586  0.98678  0.20113  1.0000
  I   I311      1.0  0.74423  0.44526  0.20948  1.0000
  I   I312      1.0  0.33207  0.42629  0.61718  1.0000
  I   I313      1.0  0.44412  0.60060  0.41941  1.0000
  I   I314      1.0  0.86215  0.09832  0.94624  1.0000
  I   I315      1.0  0.64512  0.96336  0.29056  1.0000
  I   I316      1.0  0.35253  0.87405  0.65233  1.0000
  I   I317      1.0  0.22042  0.91291  0.44205  1.0000
  I   I318      1.0  0.06112  0.65575  0.61655  1.0000
  I   I319      1.0  0.75319  0.12247  0.57374  1.0000
  I   I320      1.0  0.42951  0.74304  0.93879  1.0000
  I   I321      1.0  0.84985  0.66060  0.29675  1.0000
  I   I322      1.0  0.71422  0.61780  0.83774  1.0000
  I   I323      1.0  0.93194  0.05749  0.43857  1.0000
  I   I324      1.0  0.99769  0.98038  0.94918  1.0000
  I   I325      1.0  0.42735  0.94829  0.29989  1.0000
  I   I326      1.0  0.34225  0.13997  0.80135  1.0000
  I   I327      1.0  0.91917  0.10617  0.47546  1.0000
  I   I328      1.0  0.94797  0.30269  0.13609  1.0000
  I   I329      1.0  0.84916  0.22865  0.92211  1.0000
  I   I330      1.0  0.38072  0.13830  0.44672  1.0000
  I   I331      1.0  0.55827  0.78162  0.67005  1.0000
  I   I332      1.0  0.41961  0.03978  0.50883  1.0000
  I   I333      1.0  0.69037  0.63817  0.73247  1.0000
  I   I334      1.0  0.62544  0.81439  0.21032  1.0000
  I   I335      1.0  0.90633  0.74211  0.48754  1.0000
  I   I336      1.0  0.16673  0.15058  0.02237  1.0000
  I   I337      1.0  0.67553  0.94435  0.12290  1.0000
  I   I338      1.0  0.05980  0.23320  0.24349  1.0000
  I   I339      1.0  0.66299  0.97217  0.61894  1.0000
  I   I340      1.0  0.08624  0.54970  0.19468  1.0000
  I   I341      1.0  0.97314  0.74237  0.74989  1.0000
  I   I342      1.0  0.73246  0.96547  0.79111  1.0000
  I   I343      1.0  0.89497  0.68154  0.24338  1.0000
  I   I344      1.0  0.77563  0.95547  0.30354  1.0000
  I   I345      1.0  0.10756  0.12485  0.58903  1.0000
  I   I346      1.0  0.17733  0.74693  0.05090  1.0000
  I   I347      1.0  0.86706  0.46213  0.84078  1.0000
  I   I348      1.0  0.02281  0.15818  0.97074  1.0000
  I   I349      1.0  0.56278  0.09023  0.29387  1.0000
  I   I350      1.0  0.53443  0.56745  0.29237  1.0000
  I   I351      1.0  0.48136  0.74014  0.04226  1.0000
  I   I352      1.0  0.64906  0.21242  0.50208  1.0000
  I   I353      1.0  0.01325  0.31855  0.79047  1.0000
  I   I354      1.0  0.30611  0.15220  0.86981  1.0000
  I   I355      1.0  0.04075  0.18143  0.06072  1.0000
  I   I356      1.0  0.90432  0.72151  0.39129  1.0000
  I   I357      1.0  0.19440  0.80934  0.41159  1.0000
  I   I358      1.0  0.72807  0.54378  0.26956  1.0000
  I   I359      1.0  0.69081  0.48878  0.18420  1.0000
  I   I360      1.0  0.26411  0.46797  0.67570  1.0000
  I   I361      1.0  0.84281  0.83663  0.54109  1.0000
  I   I362      1.0  0.90019  0.09055  0.01921  1.0000
  I   I363      1.0  0.17809  0.79953  0.48680  1.0000
  I   I364      1.0  0.33455  0.65650  0.72000  1.0000
  I   I365      1.0  0.77130  0.15555  0.28215  1.0000
  I   I366      1.0  0.10052  0.65945  0.57137  1.0000
  I   I367      1.0  0.70885  0.09356  0.59163  1.0000
  I   I368      1.0  0.05376  0.53987  0.08976  1.0000
  I   I369      1.0  0.37832  0.26465  0.56463  1.0000
  I   I370      1.0  0.04646  0.17107  0.37909  1.0000
  I   I371      1.0  0.86050  0.12956  0.51941  1.0000
  I   I372      1.0  0.71784  0.55383  0.37733  1.0000
  I   I373      1.0  0.38679  0.98518  0.35874  1.0000
  I   I374      1.0  0.52304  0.59627  0.56581  1.0000
  I   I375      1.0  0.87503  0.13693  0.43187  1.0000
  I   I376      1.0  0.73624  0.49060  0.14431  1.0000
  I   I377      1.0  0.89661  0.22928  0.94842  1.0000
  I   I378      1.0  0.36547  0.37047  0.99723  1.0000
  I   I379      1.0  0.51511  0.39339  0.22985  1.0000
  I   I380      1.0  0.57979  0.62725  0.06509  1.0000
  I   I381      1.0  0.07945  0.14468  0.13411  1.0000
  I   I382      1.0  0.54824  0.80342  0.28469  1.0000
  I   I383      1.0  0.14339  0.89755  0.64359  1.0000
  I   I384      1.0  0.28959  0.48260  0.61270  1.0000
