data_image0
_chemical_formula_structural       Ti96I384
_chemical_formula_sum              "Ti96 I384"
_cell_length_a       60.2028
_cell_length_b       60.3938
_cell_length_c       29.2809
_cell_angle_alpha    88.7757
_cell_angle_beta     88.7757
_cell_angle_gamma    62.1586

_space_group_name_H-M_alt    "P 1"
_space_group_IT_number       1

loop_
  _space_group_symop_operation_xyz
  'x, y, z'

loop_
  _atom_site_type_symbol
  _atom_site_label
  _atom_site_symmetry_multiplicity
  _atom_site_fract_x
  _atom_site_fract_y
  _atom_site_fract_z
  _atom_site_occupancy
  Ti  Ti1       1.0  0.92396  0.87770  0.57676  1.0000
  Ti  Ti2       1.0  0.68790  0.05828  0.76328  1.0000
  Ti  Ti3       1.0  0.81678  0.81010  0.97578  1.0000
  Ti  Ti4       1.0  0.38519  0.50402  0.40929  1.0000
  Ti  Ti5       1.0  0.02091  0.78630  0.23381  1.0000
  Ti  Ti6       1.0  0.43934  0.00565  0.10024  1.0000
  Ti  Ti7       1.0  0.09942  0.88403  0.00496  1.0000
  Ti  Ti8       1.0  0.21318  0.59057  0.09955  1.0000
  Ti  Ti9       1.0  0.84077  0.15524  0.43181  1.0000
  Ti  Ti10      1.0  0.83093  0.00625  0.30546  1.0000
  Ti  Ti11      1.0  0.10427  0.66282  0.81798  1.0000
  Ti  Ti12      1.0  0.29655  0.67913  0.45011  1.0000
  Ti  Ti13      1.0  0.36059  0.25122  0.51268  1.0000
  Ti  Ti14      1.0  0.23549  0.14224  0.04768  1.0000
  Ti  Ti15      1.0  0.35955  0.82687  0.07095  1.0000
  Ti  Ti16      1.0  0.91149  0.27300  0.65314  1.0000
  Ti  Ti17      1.0  0.17956  0.38811  0.73157  1.0000
  Ti  Ti18      1.0  0.80734  0.54880  0.46747  1.0000
  Ti  Ti19      1.0  0.64329  0.97136  0.29104  1.0000
  Ti  Ti20      1.0  0.39984  0.12602  0.67152  1.0000
  Ti  Ti21      1.0  0.38004  0.43573  0.96679  1.0000
  Ti  Ti22      1.0  0.53796  0.95068  0.39819  1.0000
  Ti  Ti23      1.0  0.57875  0.80187  0.85718  1.0000
  Ti  Ti24      1.0  0.40312  0.01994  0.44242  1.0000
  Ti  Ti25      1.0  0.22399  0.23712  0.25495  1.0000
  Ti  Ti26      1.0  0.02484  0.41877  0.44372  1.0000
  Ti  Ti27      1.0  0.34186  0.58689  0.73905  1.0000
  Ti  Ti28      1.0  0.68588  0.64455  0.86304  1.0000
  Ti  Ti29      1.0  0.00095  0.21642  0.33795  1.0000
  Ti  Ti30      1.0  0.83674  0.45323  0.07454  1.0000
  Ti  Ti31      1.0  0.73479  0.45956  0.34328  1.0000
  Ti  Ti32      1.0  0.76807  0.94390  0.97476  1.0000
  Ti  Ti33      1.0  0.47761  0.78129  0.46515  1.0000
  Ti  Ti34      1.0  0.81676  0.76066  0.57209  1.0000
  Ti  Ti35      1.0  0.80508  0.25531  0.06898  1.0000
  Ti  Ti36      1.0  0.94062  0.60447  0.88346  1.0000
  Ti  Ti37      1.0  0.18350  0.19912  0.64980  1.0000
  Ti  Ti38      1.0  0.53636  0.27723  0.39005  1.0000
  Ti  Ti39      1.0  0.49032  0.21502  0.10396  1.0000
  Ti  Ti40      1.0  0.97997  0.58707  0.35207  1.0000
  Ti  Ti41      1.0  0.66421  0.61431  0.30957  1.0000
  Ti  Ti42      1.0  0.15002  0.77805  0.66114  1.0000
  Ti  Ti43      1.0  0.20247  0.92217  0.19275  1.0000
  Ti  Ti44      1.0  0.73121  0.73364  0.04157  1.0000
  Ti  Ti45      1.0  0.68356  0.45510  0.75108  1.0000
  Ti  Ti46      1.0  0.00544  0.00176  0.46939  1.0000
  Ti  Ti47      1.0  0.65150  0.17910  0.05382  1.0000
  Ti  Ti48      1.0  0.36851  0.58366  0.04991  1.0000
  Ti  Ti49      1.0  0.86028  0.91429  0.54064  1.0000
  Ti  Ti50      1.0  0.66306  0.08241  0.09160  1.0000
  Ti  Ti51      1.0  0.64774  0.04241  0.84701  1.0000
  Ti  Ti52      1.0  0.45813  0.47375  0.50288  1.0000
  Ti  Ti53      1.0  0.95969  0.79552  0.14596  1.0000
  Ti  Ti54      1.0  0.36539  0.05387  0.15495  1.0000
  Ti  Ti55      1.0  0.02697  0.95124  0.08441  1.0000
  Ti  Ti56      1.0  0.17115  0.64750  0.15650  1.0000
  Ti  Ti57      1.0  0.88801  0.11727  0.31928  1.0000
  Ti  Ti58      1.0  0.23859  0.94350  0.15029  1.0000
  Ti  Ti59      1.0  0.79489  0.00067  0.20085  1.0000
  Ti  Ti60      1.0  0.30389  0.72810  0.38018  1.0000
  Ti  Ti61      1.0  0.33587  0.83244  0.97948  1.0000
  Ti  Ti62      1.0  0.33673  0.26169  0.41290  1.0000
  Ti  Ti63      1.0  0.25783  0.18683  0.94664  1.0000
  Ti  Ti64      1.0  0.78230  0.55944  0.60124  1.0000
  Ti  Ti65      1.0  0.87537  0.26562  0.72864  1.0000
  Ti  Ti66      1.0  0.73150  0.26782  0.86799  1.0000
  Ti  Ti67      1.0  0.62466  0.92064  0.21031  1.0000
  Ti  Ti68      1.0  0.36359  0.17586  0.77357  1.0000
  Ti  Ti69      1.0  0.34997  0.42542  0.88381  1.0000
  Ti  Ti70      1.0  0.47416  0.95509  0.48048  1.0000
  Ti  Ti71      1.0  0.60018  0.78384  0.98686  1.0000
  Ti  Ti72      1.0  0.83688  0.84011  0.33645  1.0000
  Ti  Ti73      1.0  0.39560  0.61888  0.70690  1.0000
  Ti  Ti74      1.0  0.21828  0.28129  0.12342  1.0000
  Ti  Ti75      1.0  0.00346  0.46135  0.52580  1.0000
  Ti  Ti76      1.0  0.84390  0.50785  0.00479  1.0000
  Ti  Ti77      1.0  0.63047  0.65584  0.82066  1.0000
  Ti  Ti78      1.0  0.06822  0.19473  0.27670  1.0000
  Ti  Ti79      1.0  0.53964  0.76214  0.34780  1.0000
  Ti  Ti80      1.0  0.77909  0.46395  0.34832  1.0000
  Ti  Ti81      1.0  0.82041  0.95785  0.87744  1.0000
  Ti  Ti82      1.0  0.80459  0.70356  0.53604  1.0000
  Ti  Ti83      1.0  0.75311  0.31016  0.10662  1.0000
  Ti  Ti84      1.0  0.96782  0.54395  0.83939  1.0000
  Ti  Ti85      1.0  0.23381  0.12033  0.56758  1.0000
  Ti  Ti86      1.0  0.57754  0.23032  0.41867  1.0000
  Ti  Ti87      1.0  0.49370  0.23333  0.99751  1.0000
  Ti  Ti88      1.0  0.00252  0.64224  0.26434  1.0000
  Ti  Ti89      1.0  0.66700  0.63756  0.40245  1.0000
  Ti  Ti90      1.0  0.12644  0.74134  0.63463  1.0000
  Ti  Ti91      1.0  0.63795  0.44567  0.71036  1.0000
  Ti  Ti92      1.0  0.92152  0.11611  0.98512  1.0000
  Ti  Ti93      1.0  0.76850  0.72615  0.95404  1.0000
  Ti  Ti94      1.0  0.38675  0.62001  0.01827  1.0000
  Ti  Ti95      1.0  0.95748  0.99269  0.48377  1.0000
  Ti  Ti96      1.0  0.68809  0.13047  0.10731  1.0000
  I   I1        1.0  0.73117  0.12904  0.13124  1.0000
  I   I2        1.0  0.69225  0.01162  0.78437  1.0000
  I   I3        1.0  0.88106  0.86766  0.58632  1.0000
  I   I4        1.0  0.96750  0.75343  0.10843  1.0000
  I   I5        1.0  0.44489  0.98231  0.18168  1.0000
  I   I6        1.0  0.34244  0.07954  0.08277  1.0000
  I   I7        1.0  0.14240  0.64447  0.21615  1.0000
  I   I8        1.0  0.14929  0.69643  0.16338  1.0000
  I   I9        1.0  0.86167  0.16229  0.50475  1.0000
  I   I10       1.0  0.81101  0.01362  0.39167  1.0000
  I   I11       1.0  0.05706  0.68442  0.84100  1.0000
  I   I12       1.0  0.99749  0.75517  0.21571  1.0000
  I   I13       1.0  0.40046  0.23980  0.46012  1.0000
  I   I14       1.0  0.20171  0.12529  0.05229  1.0000
  I   I15       1.0  0.34316  0.87398  0.04136  1.0000
  I   I16       1.0  0.92350  0.23262  0.71995  1.0000
  I   I17       1.0  0.76000  0.23604  0.92478  1.0000
  I   I18       1.0  0.81490  0.51808  0.54001  1.0000
  I   I19       1.0  0.32481  0.16868  0.80367  1.0000
  I   I20       1.0  0.12418  0.68817  0.77250  1.0000
  I   I21       1.0  0.36878  0.42323  0.79577  1.0000
  I   I22       1.0  0.56657  0.83298  0.93216  1.0000
  I   I23       1.0  0.56571  0.78002  0.03324  1.0000
  I   I24       1.0  0.45241  0.92697  0.49899  1.0000
  I   I25       1.0  0.21542  0.32630  0.12597  1.0000
  I   I26       1.0  0.97984  0.42682  0.44140  1.0000
  I   I27       1.0  0.29779  0.62385  0.74846  1.0000
  I   I28       1.0  0.58310  0.68976  0.82645  1.0000
  I   I29       1.0  0.05915  0.20046  0.18711  1.0000
  I   I30       1.0  0.81315  0.48430  0.99885  1.0000
  I   I31       1.0  0.82054  0.45828  0.39113  1.0000
  I   I32       1.0  0.83168  0.99629  0.87024  1.0000
  I   I33       1.0  0.54087  0.80314  0.30558  1.0000
  I   I34       1.0  0.84826  0.25281  0.04221  1.0000
  I   I35       1.0  0.95441  0.53243  0.75223  1.0000
  I   I36       1.0  0.85687  0.75322  0.61670  1.0000
  I   I37       1.0  0.13878  0.22063  0.62762  1.0000
  I   I38       1.0  0.45634  0.21911  0.01419  1.0000
  I   I39       1.0  0.27345  0.12439  0.54143  1.0000
  I   I40       1.0  0.66701  0.64819  0.25954  1.0000
  I   I41       1.0  0.09879  0.80568  0.67310  1.0000
  I   I42       1.0  0.01423  0.64093  0.17830  1.0000
  I   I43       1.0  0.25578  0.89445  0.18294  1.0000
  I   I44       1.0  0.76737  0.68840  0.99608  1.0000
  I   I45       1.0  0.68188  0.44094  0.66442  1.0000
  I   I46       1.0  0.02974  0.02652  0.47793  1.0000
  I   I47       1.0  0.66782  0.16395  0.17020  1.0000
  I   I48       1.0  0.34818  0.55503  0.02418  1.0000
  I   I49       1.0  0.89281  0.91848  0.62274  1.0000
  I   I50       1.0  0.72572  0.05976  0.80459  1.0000
  I   I51       1.0  0.67337  0.10570  0.73418  1.0000
  I   I52       1.0  0.34158  0.53994  0.41399  1.0000
  I   I53       1.0  0.01602  0.82989  0.23077  1.0000
  I   I54       1.0  0.41331  0.05260  0.12928  1.0000
  I   I55       1.0  0.08764  0.89104  0.92284  1.0000
  I   I56       1.0  0.23383  0.58306  0.01779  1.0000
  I   I57       1.0  0.92815  0.12109  0.29196  1.0000
  I   I58       1.0  0.87072  0.96780  0.32014  1.0000
  I   I59       1.0  0.83696  0.00885  0.20364  1.0000
  I   I60       1.0  0.34246  0.66986  0.46365  1.0000
  I   I61       1.0  0.29228  0.27333  0.37206  1.0000
  I   I62       1.0  0.36189  0.24600  0.33706  1.0000
  I   I63       1.0  0.23552  0.14448  0.13420  1.0000
  I   I64       1.0  0.96129  0.25180  0.65903  1.0000
  I   I65       1.0  0.87181  0.27955  0.81418  1.0000
  I   I66       1.0  0.68341  0.28472  0.88577  1.0000
  I   I67       1.0  0.57692  0.93539  0.20232  1.0000
  I   I68       1.0  0.37494  0.10113  0.66063  1.0000
  I   I69       1.0  0.37423  0.47168  0.02358  1.0000
  I   I70       1.0  0.50057  0.98329  0.45631  1.0000
  I   I71       1.0  0.59583  0.79254  0.77630  1.0000
  I   I72       1.0  0.84571  0.87519  0.30895  1.0000
  I   I73       1.0  0.41889  0.60535  0.63024  1.0000
  I   I74       1.0  0.95741  0.49777  0.53171  1.0000
  I   I75       1.0  0.99696  0.42172  0.56082  1.0000
  I   I76       1.0  0.71841  0.65519  0.90585  1.0000
  I   I77       1.0  0.70097  0.66409  0.78847  1.0000
  I   I78       1.0  0.02288  0.24272  0.28921  1.0000
  I   I79       1.0  0.58581  0.74106  0.37845  1.0000
  I   I80       1.0  0.76628  0.43164  0.41326  1.0000
  I   I81       1.0  0.80968  0.91695  0.90545  1.0000
  I   I82       1.0  0.83120  0.65811  0.56696  1.0000
  I   I83       1.0  0.82939  0.20731  0.02219  1.0000
  I   I84       1.0  0.99918  0.55227  0.78978  1.0000
  I   I85       1.0  0.22498  0.14893  0.66384  1.0000
  I   I86       1.0  0.59249  0.18462  0.39874  1.0000
  I   I87       1.0  0.51868  0.17726  0.04869  1.0000
  I   I88       1.0  0.93312  0.60899  0.35541  1.0000
  I   I89       1.0  0.66331  0.63802  0.49197  1.0000
  I   I90       1.0  0.17178  0.74035  0.60782  1.0000
  I   I91       1.0  0.61006  0.48461  0.66651  1.0000
  I   I92       1.0  0.95677  0.12685  0.01044  1.0000
  I   I93       1.0  0.70014  0.72676  0.98753  1.0000
  I   I94       1.0  0.40497  0.54714  0.09509  1.0000
  I   I95       1.0  0.98704  0.99821  0.54848  1.0000
  I   I96       1.0  0.70136  0.13762  0.02337  1.0000
  I   I97       1.0  0.82771  0.78212  0.05195  1.0000
  I   I98       1.0  0.84342  0.96350  0.52027  1.0000
  I   I99       1.0  0.71034  0.04541  0.68309  1.0000
  I   I100      1.0  0.37604  0.47879  0.34771  1.0000
  I   I101      1.0  0.45195  0.46945  0.59360  1.0000
  I   I102      1.0  0.06209  0.75748  0.19237  1.0000
  I   I103      1.0  0.11748  0.83507  0.01748  1.0000
  I   I104      1.0  0.99892  0.99944  0.05901  1.0000
  I   I105      1.0  0.83656  0.12844  0.34190  1.0000
  I   I106      1.0  0.30877  0.68394  0.35004  1.0000
  I   I107      1.0  0.80794  0.97208  0.27766  1.0000
  I   I108      1.0  0.25725  0.72061  0.41242  1.0000
  I   I109      1.0  0.38022  0.77806  0.01908  1.0000
  I   I110      1.0  0.37565  0.21989  0.57521  1.0000
  I   I111      1.0  0.25757  0.17252  0.03481  1.0000
  I   I112      1.0  0.73749  0.58739  0.63276  1.0000
  I   I113      1.0  0.88552  0.24623  0.62695  1.0000
  I   I114      1.0  0.15380  0.38890  0.81235  1.0000
  I   I115      1.0  0.67111  0.97236  0.36244  1.0000
  I   I116      1.0  0.63286  0.87615  0.23498  1.0000
  I   I117      1.0  0.34435  0.17300  0.68608  1.0000
  I   I118      1.0  0.51473  0.91839  0.43934  1.0000
  I   I119      1.0  0.55329  0.91889  0.33078  1.0000
  I   I120      1.0  0.80977  0.82859  0.27866  1.0000
  I   I121      1.0  0.32071  0.57464  0.67419  1.0000
  I   I122      1.0  0.25734  0.23480  0.18257  1.0000
  I   I123      1.0  0.04624  0.41709  0.36586  1.0000
  I   I124      1.0  0.88308  0.50253  0.04041  1.0000
  I   I125      1.0  0.64424  0.69620  0.84228  1.0000
  I   I126      1.0  0.09762  0.21643  0.28785  1.0000
  I   I127      1.0  0.45961  0.82432  0.50533  1.0000
  I   I128      1.0  0.68497  0.48202  0.37272  1.0000
  I   I129      1.0  0.86366  0.92320  0.86035  1.0000
  I   I130      1.0  0.90428  0.63043  0.93013  1.0000
  I   I131      1.0  0.79946  0.73283  0.62895  1.0000
  I   I132      1.0  0.79013  0.29605  0.16149  1.0000
  I   I133      1.0  0.51606  0.21075  0.17791  1.0000
  I   I134      1.0  0.57566  0.24777  0.31658  1.0000
  I   I135      1.0  0.50297  0.30391  0.32649  1.0000
  I   I136      1.0  0.18819  0.77356  0.72179  1.0000
  I   I137      1.0  0.98318  0.63650  0.34276  1.0000
  I   I138      1.0  0.62292  0.61812  0.27337  1.0000
  I   I139      1.0  0.73209  0.43635  0.77138  1.0000
  I   I140      1.0  0.90490  0.10459  0.06154  1.0000
  I   I141      1.0  0.81203  0.72026  0.91419  1.0000
  I   I142      1.0  0.39335  0.60782  0.10427  1.0000
  I   I143      1.0  0.95077  0.98116  0.40448  1.0000
  I   I144      1.0  0.61176  0.21712  0.08698  1.0000
  I   I145      1.0  0.94341  0.90090  0.52405  1.0000
  I   I146      1.0  0.60015  0.07261  0.87784  1.0000
  I   I147      1.0  0.84908  0.79475  0.90966  1.0000
  I   I148      1.0  0.50652  0.44726  0.49451  1.0000
  I   I149      1.0  0.93803  0.83265  0.09034  1.0000
  I   I150      1.0  0.43377  0.02187  0.00981  1.0000
  I   I151      1.0  0.98993  0.95360  0.13589  1.0000
  I   I152      1.0  0.21835  0.63502  0.09765  1.0000
  I   I153      1.0  0.82149  0.13233  0.47727  1.0000
  I   I154      1.0  0.15222  0.94765  0.21063  1.0000
  I   I155      1.0  0.14246  0.63577  0.87025  1.0000
  I   I156      1.0  0.28270  0.68313  0.53346  1.0000
  I   I157      1.0  0.37289  0.83324  0.94099  1.0000
  I   I158      1.0  0.21873  0.22805  0.97187  1.0000
  I   I159      1.0  0.31957  0.80597  0.94300  1.0000
  I   I160      1.0  0.77889  0.54312  0.40619  1.0000
  I   I161      1.0  0.19030  0.35940  0.66064  1.0000
  I   I162      1.0  0.76861  0.58574  0.51518  1.0000
  I   I163      1.0  0.64834  0.91557  0.13080  1.0000
  I   I164      1.0  0.39720  0.13514  0.81662  1.0000
  I   I165      1.0  0.40344  0.39115  0.90838  1.0000
  I   I166      1.0  0.48977  0.94990  0.56461  1.0000
  I   I167      1.0  0.53159  0.82956  0.82843  1.0000
  I   I168      1.0  0.39919  0.05792  0.38134  1.0000
  I   I169      1.0  0.25015  0.19342  0.29558  1.0000
  I   I170      1.0  0.21825  0.26727  0.32355  1.0000
  I   I171      1.0  0.38898  0.57446  0.68614  1.0000
  I   I172      1.0  0.84962  0.51260  0.92014  1.0000
  I   I173      1.0  0.10544  0.14695  0.27628  1.0000
  I   I174      1.0  0.86072  0.42913  0.14829  1.0000
  I   I175      1.0  0.72024  0.48570  0.26281  1.0000
  I   I176      1.0  0.80668  0.96185  0.78982  1.0000
  I   I177      1.0  0.51444  0.79527  0.41957  1.0000
  I   I178      1.0  0.78657  0.80655  0.59000  1.0000
  I   I179      1.0  0.78029  0.30481  0.02377  1.0000
  I   I180      1.0  0.92396  0.60400  0.80387  1.0000
  I   I181      1.0  0.20470  0.21857  0.58850  1.0000
  I   I182      1.0  0.62074  0.23538  0.42083  1.0000
  I   I183      1.0  0.45934  0.26663  0.06796  1.0000
  I   I184      1.0  0.99403  0.59586  0.25165  1.0000
  I   I185      1.0  0.69079  0.56546  0.28597  1.0000
  I   I186      1.0  0.14326  0.69207  0.62712  1.0000
  I   I187      1.0  0.89166  0.15338  0.93299  1.0000
  I   I188      1.0  0.73477  0.77205  0.95359  1.0000
  I   I189      1.0  0.65290  0.46725  0.81761  1.0000
  I   I190      1.0  0.02240  0.98571  0.37387  1.0000
  I   I191      1.0  0.68004  0.10048  0.16837  1.0000
  I   I192      1.0  0.39109  0.57909  0.96167  1.0000
  I   I193      1.0  0.86570  0.89399  0.46309  1.0000
  I   I194      1.0  0.66195  0.09374  0.00395  1.0000
  I   I195      1.0  0.77817  0.80604  0.95254  1.0000
  I   I196      1.0  0.40103  0.51145  0.49702  1.0000
  I   I197      1.0  0.19173  0.98506  0.15278  1.0000
  I   I198      1.0  0.33500  0.03805  0.17591  1.0000
  I   I199      1.0  0.06048  0.94210  0.99998  1.0000
  I   I200      1.0  0.21245  0.60912  0.20360  1.0000
  I   I201      1.0  0.81109  0.19070  0.38669  1.0000
  I   I202      1.0  0.80786  0.98792  0.11689  1.0000
  I   I203      1.0  0.31405  0.46782  0.87186  1.0000
  I   I204      1.0  0.34685  0.72251  0.34190  1.0000
  I   I205      1.0  0.34191  0.30460  0.43892  1.0000
  I   I206      1.0  0.29563  0.19592  0.94211  1.0000
  I   I207      1.0  0.31286  0.83099  0.06543  1.0000
  I   I208      1.0  0.91152  0.30678  0.59176  1.0000
  I   I209      1.0  0.22430  0.38352  0.76130  1.0000
  I   I210      1.0  0.80433  0.58991  0.43176  1.0000
  I   I211      1.0  0.61338  0.97283  0.20733  1.0000
  I   I212      1.0  0.44198  0.09101  0.67744  1.0000
  I   I213      1.0  0.41639  0.39472  0.01841  1.0000
  I   I214      1.0  0.57498  0.94477  0.45292  1.0000
  I   I215      1.0  0.62355  0.77850  0.90893  1.0000
  I   I216      1.0  0.38059  0.00333  0.39249  1.0000
  I   I217      1.0  0.18861  0.21991  0.25020  1.0000
  I   I218      1.0  0.05834  0.43478  0.49905  1.0000
  I   I219      1.0  0.36235  0.61682  0.77991  1.0000
  I   I220      1.0  0.62078  0.61793  0.82888  1.0000
  I   I221      1.0  0.05262  0.18577  0.35647  1.0000
  I   I222      1.0  0.79922  0.44344  0.08355  1.0000
  I   I223      1.0  0.74374  0.49961  0.38664  1.0000
  I   I224      1.0  0.74253  0.98452  0.02239  1.0000
  I   I225      1.0  0.44086  0.77706  0.42218  1.0000
  I   I226      1.0  0.78001  0.75151  0.50861  1.0000
  I   I227      1.0  0.82046  0.23187  0.14361  1.0000
  I   I228      1.0  0.92727  0.56033  0.91090  1.0000
  I   I229      1.0  0.24220  0.07817  0.60224  1.0000
  I   I230      1.0  0.51199  0.30489  0.46491  1.0000
  I   I231      1.0  0.47946  0.27228  0.94368  1.0000
  I   I232      1.0  0.99638  0.53927  0.33383  1.0000
  I   I233      1.0  0.65464  0.59322  0.39271  1.0000
  I   I234      1.0  0.10694  0.75132  0.55352  1.0000
  I   I235      1.0  0.20037  0.91865  0.10245  1.0000
  I   I236      1.0  0.73183  0.70127  0.10093  1.0000
  I   I237      1.0  0.67924  0.49911  0.72254  1.0000
  I   I238      1.0  0.96015  0.03539  0.44857  1.0000
  I   I239      1.0  0.63232  0.14369  0.09073  1.0000
  I   I240      1.0  0.43953  0.58669  0.01530  1.0000
  I   I241      1.0  0.93673  0.83872  0.52887  1.0000
  I   I242      1.0  0.67845  0.05973  0.87810  1.0000
  I   I243      1.0  0.79355  0.85754  0.97547  1.0000
  I   I244      1.0  0.39238  0.53297  0.34195  1.0000
  I   I245      1.0  0.02607  0.77644  0.32025  1.0000
  I   I246      1.0  0.48557  0.99577  0.07641  1.0000
  I   I247      1.0  0.06736  0.89119  0.08462  1.0000
  I   I248      1.0  0.25878  0.56184  0.14000  1.0000
  I   I249      1.0  0.89220  0.12644  0.40602  1.0000
  I   I250      1.0  0.77095  0.04771  0.23474  1.0000
  I   I251      1.0  0.10998  0.62429  0.76960  1.0000
  I   I252      1.0  0.26895  0.76533  0.33718  1.0000
  I   I253      1.0  0.34548  0.29255  0.56078  1.0000
  I   I254      1.0  0.27396  0.09864  0.04412  1.0000
  I   I255      1.0  0.30834  0.87516  0.93289  1.0000
  I   I256      1.0  0.86407  0.23218  0.76025  1.0000
  I   I257      1.0  0.15041  0.43439  0.70683  1.0000
  I   I258      1.0  0.80451  0.53444  0.67941  1.0000
  I   I259      1.0  0.66996  0.97978  0.23081  1.0000
  I   I260      1.0  0.35203  0.22313  0.77779  1.0000
  I   I261      1.0  0.34490  0.41897  0.98158  1.0000
  I   I262      1.0  0.53627  0.98500  0.33938  1.0000
  I   I263      1.0  0.56536  0.76546  0.88060  1.0000
  I   I264      1.0  0.36462  0.04139  0.49469  1.0000
  I   I265      1.0  0.19693  0.28499  0.20988  1.0000
  I   I266      1.0  0.00768  0.47378  0.43855  1.0000
  I   I267      1.0  0.34412  0.55483  0.79724  1.0000
  I   I268      1.0  0.70817  0.60182  0.82204  1.0000
  I   I269      1.0  0.98175  0.20207  0.40804  1.0000
  I   I270      1.0  0.81852  0.55944  0.01715  1.0000
  I   I271      1.0  0.79357  0.42600  0.28106  1.0000
  I   I272      1.0  0.73582  0.92758  0.94953  1.0000
  I   I273      1.0  0.51447  0.73804  0.41105  1.0000
  I   I274      1.0  0.80967  0.68924  0.45436  1.0000
  I   I275      1.0  0.73690  0.36222  0.10225  1.0000
  I   I276      1.0  0.98856  0.56401  0.91063  1.0000
  I   I277      1.0  0.19334  0.21682  0.72711  1.0000
  I   I278      1.0  0.56596  0.29749  0.40226  1.0000
  I   I279      1.0  0.52835  0.23185  0.06170  1.0000
  I   I280      1.0  0.04511  0.61451  0.29713  1.0000
  I   I281      1.0  0.62214  0.65793  0.37135  1.0000
  I   I282      1.0  0.15024  0.80589  0.58908  1.0000
  I   I283      1.0  0.20398  0.88546  0.24637  1.0000
  I   I284      1.0  0.70257  0.76905  0.09461  1.0000
  I   I285      1.0  0.68323  0.40973  0.75858  1.0000
  I   I286      1.0  0.03908  0.95170  0.48284  1.0000
  I   I287      1.0  0.71357  0.07695  0.07297  1.0000
  I   I288      1.0  0.32520  0.60522  0.09699  1.0000
  I   I289      1.0  0.94993  0.85929  0.64582  1.0000
  I   I290      1.0  0.61992  0.08759  0.11700  1.0000
  I   I291      1.0  0.62842  0.06575  0.76723  1.0000
  I   I292      1.0  0.44291  0.47491  0.40866  1.0000
  I   I293      1.0  0.93594  0.81222  0.22263  1.0000
  I   I294      1.0  0.38889  0.01165  0.09875  1.0000
  I   I295      1.0  0.13468  0.89624  0.03003  1.0000
  I   I296      1.0  0.16421  0.62307  0.09080  1.0000
  I   I297      1.0  0.89886  0.07122  0.30291  1.0000
  I   I298      1.0  0.24032  0.94770  0.05355  1.0000
  I   I299      1.0  0.82548  0.05111  0.32849  1.0000
  I   I300      1.0  0.29169  0.75354  0.45419  1.0000
  I   I301      1.0  0.35482  0.83520  0.15948  1.0000
  I   I302      1.0  0.30463  0.27639  0.49281  1.0000
  I   I303      1.0  0.22991  0.15255  0.95562  1.0000
  I   I304      1.0  0.85388  0.51798  0.43349  1.0000
  I   I305      1.0  0.87794  0.31021  0.69695  1.0000
  I   I306      1.0  0.75167  0.24842  0.79051  1.0000
  I   I307      1.0  0.60844  0.01425  0.31878  1.0000
  I   I308      1.0  0.40927  0.14303  0.59285  1.0000
  I   I309      1.0  0.37762  0.46340  0.89264  1.0000
  I   I310      1.0  0.43528  0.00483  0.51909  1.0000
  I   I311      1.0  0.61359  0.80867  0.04244  1.0000
  I   I312      1.0  0.88272  0.80759  0.31994  1.0000
  I   I313      1.0  0.44192  0.59792  0.74726  1.0000
  I   I314      1.0  0.25405  0.26933  0.06312  1.0000
  I   I315      1.0  0.04441  0.36992  0.46107  1.0000
  I   I316      1.0  0.88432  0.44048  0.02935  1.0000
  I   I317      1.0  0.64900  0.64904  0.91676  1.0000
  I   I318      1.0  0.96942  0.26097  0.33975  1.0000
  I   I319      1.0  0.48021  0.75478  0.53757  1.0000
  I   I320      1.0  0.73118  0.42094  0.31959  1.0000
  I   I321      1.0  0.79516  0.92374  0.04922  1.0000
  I   I322      1.0  0.84771  0.71297  0.52337  1.0000
  I   I323      1.0  0.75435  0.26472  0.07371  1.0000
  I   I324      1.0  0.99274  0.49647  0.87054  1.0000
  I   I325      1.0  0.22056  0.11188  0.48345  1.0000
  I   I326      1.0  0.56287  0.23534  0.50391  1.0000
  I   I327      1.0  0.53427  0.21300  0.93421  1.0000
  I   I328      1.0  0.00740  0.68372  0.28456  1.0000
  I   I329      1.0  0.70977  0.60633  0.34857  1.0000
  I   I330      1.0  0.14792  0.73695  0.71328  1.0000
  I   I331      1.0  0.60824  0.44861  0.78037  1.0000
  I   I332      1.0  0.23059  0.93722  0.24218  1.0000
  I   I333      1.0  0.74782  0.73200  0.87134  1.0000
  I   I334      1.0  0.38140  0.66042  0.97928  1.0000
  I   I335      1.0  0.97840  0.94472  0.50514  1.0000
  I   I336      1.0  0.67781  0.20497  0.05487  1.0000
  I   I337      1.0  0.81179  0.93778  0.57331  1.0000
  I   I338      1.0  0.68486  0.03893  0.12449  1.0000
  I   I339      1.0  0.64549  0.00074  0.85052  1.0000
  I   I340      1.0  0.46085  0.51561  0.48516  1.0000
  I   I341      1.0  0.00257  0.79994  0.13808  1.0000
  I   I342      1.0  0.35621  0.08600  0.22445  1.0000
  I   I343      1.0  0.05968  0.95157  0.13979  1.0000
  I   I344      1.0  0.19878  0.55650  0.10061  1.0000
  I   I345      1.0  0.87415  0.14255  0.24362  1.0000
  I   I346      1.0  0.28036  0.95073  0.14968  1.0000
  I   I347      1.0  0.75494  0.99408  0.20146  1.0000
  I   I348      1.0  0.27600  0.65113  0.42831  1.0000
  I   I349      1.0  0.40538  0.81368  0.07998  1.0000
  I   I350      1.0  0.35978  0.21414  0.44601  1.0000
  I   I351      1.0  0.24472  0.20736  0.85690  1.0000
  I   I352      1.0  0.80050  0.58932  0.61659  1.0000
  I   I353      1.0  0.82396  0.29959  0.73559  1.0000
  I   I354      1.0  0.74562  0.30213  0.86777  1.0000
  I   I355      1.0  0.63938  0.92268  0.30669  1.0000
  I   I356      1.0  0.40381  0.16843  0.71233  1.0000
  I   I357      1.0  0.32745  0.39859  0.87359  1.0000
  I   I358      1.0  0.44457  0.97814  0.40045  1.0000
  I   I359      1.0  0.63523  0.73565  0.99453  1.0000
  I   I360      1.0  0.81247  0.84663  0.41571  1.0000
  I   I361      1.0  0.36433  0.66582  0.68207  1.0000
  I   I362      1.0  0.17982  0.28405  0.08548  1.0000
  I   I363      1.0  0.02436  0.47566  0.58932  1.0000
  I   I364      1.0  0.82797  0.49997  0.10885  1.0000
  I   I365      1.0  0.63927  0.66411  0.73660  1.0000
  I   I366      1.0  0.99397  0.19228  0.27437  1.0000
  I   I367      1.0  0.53813  0.74460  0.26766  1.0000
  I   I368      1.0  0.78164  0.48311  0.26104  1.0000
  I   I369      1.0  0.76455  0.98255  0.91097  1.0000
  I   I370      1.0  0.76587  0.69868  0.56703  1.0000
  I   I371      1.0  0.71451  0.32099  0.15206  1.0000
  I   I372      1.0  0.95958  0.63332  0.85823  1.0000
  I   I373      1.0  0.19040  0.15748  0.56635  1.0000
  I   I374      1.0  0.52876  0.23530  0.40133  1.0000
  I   I375      1.0  0.44764  0.21798  0.13003  1.0000
  I   I376      1.0  0.99945  0.57208  0.43738  1.0000
  I   I377      1.0  0.67476  0.67542  0.38281  1.0000
  I   I378      1.0  0.08406  0.74612  0.67692  1.0000
  I   I379      1.0  0.62402  0.42142  0.65087  1.0000
  I   I380      1.0  0.93721  0.07431  0.93902  1.0000
  I   I381      1.0  0.78034  0.73311  0.04400  1.0000
  I   I382      1.0  0.33691  0.63829  0.99896  1.0000
  I   I383      1.0  0.90777  0.01328  0.51915  1.0000
  I   I384      1.0  0.63538  0.18723  0.97114  1.0000
