data_image0
_chemical_formula_structural       Ti96I384
_chemical_formula_sum              "Ti96 I384"
_cell_length_a       40.2712
_cell_length_b       39.7278
_cell_length_c       22.3065
_cell_angle_alpha    88.7757
_cell_angle_beta     88.7757
_cell_angle_gamma    62.1586

_space_group_name_H-M_alt    "P 1"
_space_group_IT_number       1

loop_
  _space_group_symop_operation_xyz
  'x, y, z'

loop_
  _atom_site_type_symbol
  _atom_site_label
  _atom_site_symmetry_multiplicity
  _atom_site_fract_x
  _atom_site_fract_y
  _atom_site_fract_z
  _atom_site_occupancy
  Ti  Ti1       1.0  0.16508  0.09274  0.14250  1.0000
  Ti  Ti2       1.0  0.14994  0.08983  0.49400  1.0000
  Ti  Ti3       1.0  0.15623  0.10407  0.81212  1.0000
  Ti  Ti4       1.0  0.18541  0.34350  0.32221  1.0000
  Ti  Ti5       1.0  0.18188  0.31974  0.65895  1.0000
  Ti  Ti6       1.0  0.18483  0.31545  0.99428  1.0000
  Ti  Ti7       1.0  0.11290  0.63088  0.35326  1.0000
  Ti  Ti8       1.0  0.12686  0.63685  0.69251  1.0000
  Ti  Ti9       1.0  0.13548  0.62782  0.03722  1.0000
  Ti  Ti10      1.0  0.13792  0.89039  0.28282  1.0000
  Ti  Ti11      1.0  0.15481  0.87959  0.61074  1.0000
  Ti  Ti12      1.0  0.12656  0.87135  0.94799  1.0000
  Ti  Ti13      1.0  0.45358  0.06931  0.25173  1.0000
  Ti  Ti14      1.0  0.42600  0.07196  0.58954  1.0000
  Ti  Ti15      1.0  0.44864  0.05500  0.90788  1.0000
  Ti  Ti16      1.0  0.36991  0.38005  0.37955  1.0000
  Ti  Ti17      1.0  0.38648  0.37867  0.70875  1.0000
  Ti  Ti18      1.0  0.38114  0.36658  0.03147  1.0000
  Ti  Ti19      1.0  0.37306  0.63853  0.28041  1.0000
  Ti  Ti20      1.0  0.37924  0.62681  0.63670  1.0000
  Ti  Ti21      1.0  0.37667  0.64648  0.95858  1.0000
  Ti  Ti22      1.0  0.43613  0.84384  0.06263  1.0000
  Ti  Ti23      1.0  0.38555  0.84506  0.40340  1.0000
  Ti  Ti24      1.0  0.41651  0.83883  0.71583  1.0000
  Ti  Ti25      1.0  0.63092  0.15030  0.28676  1.0000
  Ti  Ti26      1.0  0.63447  0.14242  0.62648  1.0000
  Ti  Ti27      1.0  0.64520  0.11592  0.94259  1.0000
  Ti  Ti28      1.0  0.65406  0.35241  0.24011  1.0000
  Ti  Ti29      1.0  0.64431  0.37364  0.57997  1.0000
  Ti  Ti30      1.0  0.65319  0.34664  0.91190  1.0000
  Ti  Ti31      1.0  0.69642  0.57229  0.11554  1.0000
  Ti  Ti32      1.0  0.69613  0.56719  0.45716  1.0000
  Ti  Ti33      1.0  0.69658  0.57365  0.78763  1.0000
  Ti  Ti34      1.0  0.68226  0.81431  0.27106  1.0000
  Ti  Ti35      1.0  0.67556  0.82199  0.59851  1.0000
  Ti  Ti36      1.0  0.66918  0.81512  0.93398  1.0000
  Ti  Ti37      1.0  0.89091  0.10928  0.21144  1.0000
  Ti  Ti38      1.0  0.87377  0.12063  0.54934  1.0000
  Ti  Ti39      1.0  0.87547  0.12106  0.86868  1.0000
  Ti  Ti40      1.0  0.92342  0.32171  0.12423  1.0000
  Ti  Ti41      1.0  0.92270  0.31386  0.45813  1.0000
  Ti  Ti42      1.0  0.92722  0.30923  0.80783  1.0000
  Ti  Ti43      1.0  0.94050  0.53534  0.28123  1.0000
  Ti  Ti44      1.0  0.95131  0.53249  0.61728  1.0000
  Ti  Ti45      1.0  0.95316  0.53349  0.95608  1.0000
  Ti  Ti46      1.0  0.88285  0.86371  0.34859  1.0000
  Ti  Ti47      1.0  0.86449  0.85749  0.68905  1.0000
  Ti  Ti48      1.0  0.87128  0.85136  0.02136  1.0000
  Ti  Ti49      1.0  0.08962  0.14920  0.97962  1.0000
  Ti  Ti50      1.0  0.09267  0.14603  0.30738  1.0000
  Ti  Ti51      1.0  0.08216  0.14801  0.65159  1.0000
  Ti  Ti52      1.0  0.11965  0.34641  0.16189  1.0000
  Ti  Ti53      1.0  0.12505  0.35154  0.48666  1.0000
  Ti  Ti54      1.0  0.11355  0.35071  0.83231  1.0000
  Ti  Ti55      1.0  0.05515  0.68157  0.19420  1.0000
  Ti  Ti56      1.0  0.05864  0.69341  0.53850  1.0000
  Ti  Ti57      1.0  0.07380  0.69012  0.88518  1.0000
  Ti  Ti58      1.0  0.06060  0.92663  0.11493  1.0000
  Ti  Ti59      1.0  0.07516  0.92921  0.45094  1.0000
  Ti  Ti60      1.0  0.07664  0.91718  0.77952  1.0000
  Ti  Ti61      1.0  0.40433  0.12490  0.07181  1.0000
  Ti  Ti62      1.0  0.38087  0.13716  0.40305  1.0000
  Ti  Ti63      1.0  0.37364  0.12846  0.76434  1.0000
  Ti  Ti64      1.0  0.31931  0.44663  0.20620  1.0000
  Ti  Ti65      1.0  0.31308  0.42746  0.55010  1.0000
  Ti  Ti66      1.0  0.34045  0.44279  0.86689  1.0000
  Ti  Ti67      1.0  0.28251  0.70110  0.15783  1.0000
  Ti  Ti68      1.0  0.32405  0.68865  0.46823  1.0000
  Ti  Ti69      1.0  0.30293  0.70571  0.79121  1.0000
  Ti  Ti70      1.0  0.42059  0.87906  0.90451  1.0000
  Ti  Ti71      1.0  0.30806  0.93153  0.27823  1.0000
  Ti  Ti72      1.0  0.35247  0.91867  0.56207  1.0000
  Ti  Ti73      1.0  0.57386  0.18125  0.09872  1.0000
  Ti  Ti74      1.0  0.56259  0.19891  0.44731  1.0000
  Ti  Ti75      1.0  0.58390  0.18659  0.80043  1.0000
  Ti  Ti76      1.0  0.57554  0.40821  0.08933  1.0000
  Ti  Ti77      1.0  0.57614  0.40405  0.41147  1.0000
  Ti  Ti78      1.0  0.58427  0.39619  0.74454  1.0000
  Ti  Ti79      1.0  0.62590  0.61839  0.93933  1.0000
  Ti  Ti80      1.0  0.61903  0.62054  0.29132  1.0000
  Ti  Ti81      1.0  0.63698  0.61479  0.62744  1.0000
  Ti  Ti82      1.0  0.61090  0.87451  0.11335  1.0000
  Ti  Ti83      1.0  0.61749  0.86863  0.43027  1.0000
  Ti  Ti84      1.0  0.61305  0.88538  0.77517  1.0000
  Ti  Ti85      1.0  0.82891  0.17357  0.04051  1.0000
  Ti  Ti86      1.0  0.82502  0.16974  0.38200  1.0000
  Ti  Ti87      1.0  0.80941  0.18470  0.70053  1.0000
  Ti  Ti88      1.0  0.86487  0.37710  0.95187  1.0000
  Ti  Ti89      1.0  0.85926  0.37726  0.28209  1.0000
  Ti  Ti90      1.0  0.85319  0.36022  0.63457  1.0000
  Ti  Ti91      1.0  0.88819  0.60091  0.11079  1.0000
  Ti  Ti92      1.0  0.89355  0.59461  0.44563  1.0000
  Ti  Ti93      1.0  0.88115  0.60372  0.79205  1.0000
  Ti  Ti94      1.0  0.82992  0.92854  0.18052  1.0000
  Ti  Ti95      1.0  0.79940  0.92360  0.51590  1.0000
  Ti  Ti96      1.0  0.81337  0.91794  0.85816  1.0000
  I   I1        1.0  0.09548  0.10815  0.20124  1.0000
  I   I2        1.0  0.07969  0.11360  0.54819  1.0000
  I   I3        1.0  0.08215  0.11945  0.87860  1.0000
  I   I4        1.0  0.13527  0.31463  0.37254  1.0000
  I   I5        1.0  0.11737  0.31360  0.71778  1.0000
  I   I6        1.0  0.12905  0.30385  0.04687  1.0000
  I   I7        1.0  0.04513  0.65168  0.43497  1.0000
  I   I8        1.0  0.06958  0.64747  0.77137  1.0000
  I   I9        1.0  0.06371  0.63981  0.09142  1.0000
  I   I10       1.0  0.08101  0.88038  0.36317  1.0000
  I   I11       1.0  0.08166  0.88331  0.66799  1.0000
  I   I12       1.0  0.06258  0.88141  0.01615  1.0000
  I   I13       1.0  0.37011  0.11112  0.28674  1.0000
  I   I14       1.0  0.36472  0.08722  0.67256  1.0000
  I   I15       1.0  0.38498  0.08798  0.98166  1.0000
  I   I16       1.0  0.29434  0.40293  0.44395  1.0000
  I   I17       1.0  0.32045  0.39958  0.78360  1.0000
  I   I18       1.0  0.31210  0.40504  0.09550  1.0000
  I   I19       1.0  0.31565  0.65214  0.37343  1.0000
  I   I20       1.0  0.28986  0.67238  0.69843  1.0000
  I   I21       1.0  0.27330  0.67886  0.04356  1.0000
  I   I22       1.0  0.31591  0.90312  0.17128  1.0000
  I   I23       1.0  0.31745  0.89708  0.48320  1.0000
  I   I24       1.0  0.36606  0.87978  0.82987  1.0000
  I   I25       1.0  0.56038  0.15725  0.33738  1.0000
  I   I26       1.0  0.56292  0.16869  0.69761  1.0000
  I   I27       1.0  0.57253  0.13974  0.00126  1.0000
  I   I28       1.0  0.58688  0.35379  0.31760  1.0000
  I   I29       1.0  0.57434  0.38603  0.61619  1.0000
  I   I30       1.0  0.57101  0.36917  0.99988  1.0000
  I   I31       1.0  0.62546  0.58934  0.18010  1.0000
  I   I32       1.0  0.62875  0.57737  0.51681  1.0000
  I   I33       1.0  0.62654  0.57717  0.83639  1.0000
  I   I34       1.0  0.60990  0.83735  0.32834  1.0000
  I   I35       1.0  0.59888  0.85271  0.66973  1.0000
  I   I36       1.0  0.60270  0.84339  0.00678  1.0000
  I   I37       1.0  0.81424  0.14564  0.26134  1.0000
  I   I38       1.0  0.79813  0.15922  0.59006  1.0000
  I   I39       1.0  0.80418  0.17181  0.93217  1.0000
  I   I40       1.0  0.84945  0.33922  0.18392  1.0000
  I   I41       1.0  0.85965  0.32346  0.53045  1.0000
  I   I42       1.0  0.85305  0.34194  0.86364  1.0000
  I   I43       1.0  0.86734  0.57807  0.33467  1.0000
  I   I44       1.0  0.87460  0.56821  0.69232  1.0000
  I   I45       1.0  0.87654  0.56833  0.01036  1.0000
  I   I46       1.0  0.79297  0.90456  0.40579  1.0000
  I   I47       1.0  0.78965  0.88810  0.75261  1.0000
  I   I48       1.0  0.80241  0.89579  0.08629  1.0000
  I   I49       1.0  0.11612  0.16226  0.09141  1.0000
  I   I50       1.0  0.11598  0.16554  0.42001  1.0000
  I   I51       1.0  0.10545  0.16948  0.74682  1.0000
  I   I52       1.0  0.12182  0.39006  0.24986  1.0000
  I   I53       1.0  0.12135  0.38212  0.60755  1.0000
  I   I54       1.0  0.12943  0.37826  0.93582  1.0000
  I   I55       1.0  0.07264  0.70493  0.29870  1.0000
  I   I56       1.0  0.08030  0.71247  0.64472  1.0000
  I   I57       1.0  0.08834  0.71162  0.99153  1.0000
  I   I58       1.0  0.08319  0.95480  0.21303  1.0000
  I   I59       1.0  0.09223  0.95032  0.55862  1.0000
  I   I60       1.0  0.09356  0.94033  0.88703  1.0000
  I   I61       1.0  0.43779  0.13355  0.16894  1.0000
  I   I62       1.0  0.39297  0.14531  0.52450  1.0000
  I   I63       1.0  0.40873  0.13997  0.85753  1.0000
  I   I64       1.0  0.33513  0.46248  0.32417  1.0000
  I   I65       1.0  0.34042  0.44788  0.65348  1.0000
  I   I66       1.0  0.36498  0.44087  0.97853  1.0000
  I   I67       1.0  0.31203  0.71892  0.25400  1.0000
  I   I68       1.0  0.36337  0.69490  0.56188  1.0000
  I   I69       1.0  0.34909  0.71279  0.88852  1.0000
  I   I70       1.0  0.48274  0.86520  0.97961  1.0000
  I   I71       1.0  0.37449  0.90906  0.31831  1.0000
  I   I72       1.0  0.40138  0.91198  0.65165  1.0000
  I   I73       1.0  0.58227  0.21408  0.21718  1.0000
  I   I74       1.0  0.59421  0.21357  0.56456  1.0000
  I   I75       1.0  0.62617  0.19354  0.89188  1.0000
  I   I76       1.0  0.60836  0.42237  0.19275  1.0000
  I   I77       1.0  0.59559  0.44167  0.51348  1.0000
  I   I78       1.0  0.59569  0.41091  0.86069  1.0000
  I   I79       1.0  0.65336  0.64355  0.04758  1.0000
  I   I80       1.0  0.64155  0.64206  0.39179  1.0000
  I   I81       1.0  0.63719  0.64586  0.73530  1.0000
  I   I82       1.0  0.64681  0.89359  0.20153  1.0000
  I   I83       1.0  0.64495  0.89711  0.54025  1.0000
  I   I84       1.0  0.63929  0.89361  0.87989  1.0000
  I   I85       1.0  0.86962  0.18126  0.14078  1.0000
  I   I86       1.0  0.84710  0.19389  0.48022  1.0000
  I   I87       1.0  0.84474  0.19485  0.79140  1.0000
  I   I88       1.0  0.89722  0.39603  0.05230  1.0000
  I   I89       1.0  0.87042  0.40395  0.38225  1.0000
  I   I90       1.0  0.89440  0.37328  0.72553  1.0000
  I   I91       1.0  0.91908  0.61238  0.21641  1.0000
  I   I92       1.0  0.93799  0.60144  0.53504  1.0000
  I   I93       1.0  0.92898  0.59944  0.88508  1.0000
  I   I94       1.0  0.86125  0.93666  0.29264  1.0000
  I   I95       1.0  0.82685  0.93816  0.63935  1.0000
  I   I96       1.0  0.85775  0.92088  0.94637  1.0000
  I   I97       1.0  0.16266  0.14136  0.90757  1.0000
  I   I98       1.0  0.16802  0.12184  0.25434  1.0000
  I   I99       1.0  0.15180  0.13754  0.57935  1.0000
  I   I100      1.0  0.17649  0.35276  0.09456  1.0000
  I   I101      1.0  0.17607  0.37446  0.43400  1.0000
  I   I102      1.0  0.17210  0.35487  0.76008  1.0000
  I   I103      1.0  0.13008  0.65601  0.15250  1.0000
  I   I104      1.0  0.11580  0.67930  0.45127  1.0000
  I   I105      1.0  0.14373  0.66199  0.81040  1.0000
  I   I106      1.0  0.13425  0.91016  0.04575  1.0000
  I   I107      1.0  0.13947  0.93453  0.37080  1.0000
  I   I108      1.0  0.14650  0.91224  0.71728  1.0000
  I   I109      1.0  0.47256  0.08857  0.00321  1.0000
  I   I110      1.0  0.45713  0.10082  0.35627  1.0000
  I   I111      1.0  0.44397  0.10235  0.69029  1.0000
  I   I112      1.0  0.38767  0.40452  0.14600  1.0000
  I   I113      1.0  0.37179  0.42336  0.47520  1.0000
  I   I114      1.0  0.40735  0.40036  0.80523  1.0000
  I   I115      1.0  0.36576  0.68159  0.05712  1.0000
  I   I116      1.0  0.38683  0.66612  0.38759  1.0000
  I   I117      1.0  0.38197  0.66680  0.72303  1.0000
  I   I118      1.0  0.46023  0.85861  0.79081  1.0000
  I   I119      1.0  0.42843  0.89833  0.13149  1.0000
  I   I120      1.0  0.42300  0.86157  0.48563  1.0000
  I   I121      1.0  0.65257  0.15475  0.05498  1.0000
  I   I122      1.0  0.62910  0.19085  0.39574  1.0000
  I   I123      1.0  0.66042  0.16283  0.73008  1.0000
  I   I124      1.0  0.66492  0.38138  0.00479  1.0000
  I   I125      1.0  0.65004  0.39248  0.34349  1.0000
  I   I126      1.0  0.63370  0.41979  0.67994  1.0000
  I   I127      1.0  0.69628  0.61049  0.89297  1.0000
  I   I128      1.0  0.69407  0.60825  0.22926  1.0000
  I   I129      1.0  0.70566  0.59326  0.56514  1.0000
  I   I130      1.0  0.68213  0.85183  0.03635  1.0000
  I   I131      1.0  0.69377  0.84240  0.38244  1.0000
  I   I132      1.0  0.69037  0.84227  0.70450  1.0000
  I   I133      1.0  0.89901  0.14357  0.95778  1.0000
  I   I134      1.0  0.90229  0.13504  0.32920  1.0000
  I   I135      1.0  0.88598  0.16147  0.63491  1.0000
  I   I136      1.0  0.93598  0.34585  0.89705  1.0000
  I   I137      1.0  0.93528  0.35551  0.22221  1.0000
  I   I138      1.0  0.93082  0.34195  0.56636  1.0000
  I   I139      1.0  0.96454  0.55729  0.05637  1.0000
  I   I140      1.0  0.96584  0.55950  0.37751  1.0000
  I   I141      1.0  0.95942  0.57352  0.70670  1.0000
  I   I142      1.0  0.89952  0.89049  0.11757  1.0000
  I   I143      1.0  0.88395  0.89299  0.45668  1.0000
  I   I144      1.0  0.88470  0.87982  0.79353  1.0000
  I   I145      1.0  0.14339  0.07721  0.01984  1.0000
  I   I146      1.0  0.11753  0.07907  0.39052  1.0000
  I   I147      1.0  0.13402  0.07085  0.70526  1.0000
  I   I148      1.0  0.18949  0.29168  0.22173  1.0000
  I   I149      1.0  0.18232  0.28946  0.54100  1.0000
  I   I150      1.0  0.17877  0.27862  0.89205  1.0000
  I   I151      1.0  0.08885  0.60547  0.26178  1.0000
  I   I152      1.0  0.10479  0.61678  0.59369  1.0000
  I   I153      1.0  0.11377  0.60830  0.93839  1.0000
  I   I154      1.0  0.11051  0.86039  0.19921  1.0000
  I   I155      1.0  0.13992  0.86033  0.50139  1.0000
  I   I156      1.0  0.12382  0.84032  0.83559  1.0000
  I   I157      1.0  0.43525  0.04743  0.13692  1.0000
  I   I158      1.0  0.39853  0.06394  0.46467  1.0000
  I   I159      1.0  0.41480  0.04554  0.81345  1.0000
  I   I160      1.0  0.32951  0.38333  0.28161  1.0000
  I   I161      1.0  0.35176  0.35467  0.61757  1.0000
  I   I162      1.0  0.34121  0.37288  0.93412  1.0000
  I   I163      1.0  0.33699  0.62490  0.17776  1.0000
  I   I164      1.0  0.36286  0.60742  0.52423  1.0000
  I   I165      1.0  0.32465  0.63907  0.86837  1.0000
  I   I166      1.0  0.44572  0.80092  0.93527  1.0000
  I   I167      1.0  0.32564  0.85395  0.32972  1.0000
  I   I168      1.0  0.36133  0.84905  0.63914  1.0000
  I   I169      1.0  0.61318  0.11696  0.18338  1.0000
  I   I170      1.0  0.60082  0.13367  0.51180  1.0000
  I   I171      1.0  0.63300  0.10948  0.82305  1.0000
  I   I172      1.0  0.62149  0.33195  0.15049  1.0000
  I   I173      1.0  0.62578  0.33718  0.47612  1.0000
  I   I174      1.0  0.64485  0.32904  0.78780  1.0000
  I   I175      1.0  0.67368  0.54933  0.00811  1.0000
  I   I176      1.0  0.66553  0.54893  0.36456  1.0000
  I   I177      1.0  0.66801  0.54695  0.68696  1.0000
  I   I178      1.0  0.65437  0.80115  0.16866  1.0000
  I   I179      1.0  0.64848  0.79686  0.49485  1.0000
  I   I180      1.0  0.63301  0.81186  0.84140  1.0000
  I   I181      1.0  0.85690  0.10431  0.11043  1.0000
  I   I182      1.0  0.84905  0.10037  0.44071  1.0000
  I   I183      1.0  0.84537  0.10658  0.75038  1.0000
  I   I184      1.0  0.89220  0.31104  0.02199  1.0000
  I   I185      1.0  0.89375  0.30721  0.35500  1.0000
  I   I186      1.0  0.89821  0.28811  0.70743  1.0000
  I   I187      1.0  0.90639  0.52937  0.18278  1.0000
  I   I188      1.0  0.92254  0.51641  0.52028  1.0000
  I   I189      1.0  0.90873  0.53046  0.85575  1.0000
  I   I190      1.0  0.85501  0.85479  0.24205  1.0000
  I   I191      1.0  0.83279  0.85125  0.58158  1.0000
  I   I192      1.0  0.83746  0.84535  0.91938  1.0000
  I   I193      1.0  0.22272  0.09873  0.09690  1.0000
  I   I194      1.0  0.21352  0.08098  0.45233  1.0000
  I   I195      1.0  0.21132  0.11273  0.76328  1.0000
  I   I196      1.0  0.21215  0.38178  0.25446  1.0000
  I   I197      1.0  0.23949  0.32382  0.60764  1.0000
  I   I198      1.0  0.23064  0.33966  0.93492  1.0000
  I   I199      1.0  0.17793  0.62615  0.32698  1.0000
  I   I200      1.0  0.18142  0.63744  0.62675  1.0000
  I   I201      1.0  0.20134  0.61317  0.99414  1.0000
  I   I202      1.0  0.19155  0.89944  0.22019  1.0000
  I   I203      1.0  0.20485  0.89636  0.55975  1.0000
  I   I204      1.0  0.19192  0.87107  0.92094  1.0000
  I   I205      1.0  0.52272  0.04875  0.22109  1.0000
  I   I206      1.0  0.49039  0.06499  0.53801  1.0000
  I   I207      1.0  0.50347  0.05195  0.84966  1.0000
  I   I208      1.0  0.43408  0.37112  0.34242  1.0000
  I   I209      1.0  0.44080  0.37314  0.63525  1.0000
  I   I210      1.0  0.45042  0.34616  0.99215  1.0000
  I   I211      1.0  0.43116  0.63143  0.22074  1.0000
  I   I212      1.0  0.44716  0.60571  0.60449  1.0000
  I   I213      1.0  0.44479  0.63125  0.93135  1.0000
  I   I214      1.0  0.50800  0.78111  0.09281  1.0000
  I   I215      1.0  0.43626  0.80585  0.32323  1.0000
  I   I216      1.0  0.46101  0.79208  0.63712  1.0000
  I   I217      1.0  0.68856  0.16237  0.25838  1.0000
  I   I218      1.0  0.70075  0.12008  0.56443  1.0000
  I   I219      1.0  0.71794  0.09302  0.91944  1.0000
  I   I220      1.0  0.71848  0.34354  0.20138  1.0000
  I   I221      1.0  0.70391  0.37178  0.53375  1.0000
  I   I222      1.0  0.71727  0.33945  0.86996  1.0000
  I   I223      1.0  0.76328  0.56288  0.08576  1.0000
  I   I224      1.0  0.75877  0.55865  0.40321  1.0000
  I   I225      1.0  0.75657  0.57362  0.73336  1.0000
  I   I226      1.0  0.74597  0.80794  0.22740  1.0000
  I   I227      1.0  0.74054  0.80952  0.56261  1.0000
  I   I228      1.0  0.73873  0.79110  0.89847  1.0000
  I   I229      1.0  0.95953  0.08902  0.18005  1.0000
  I   I230      1.0  0.93835  0.09798  0.50452  1.0000
  I   I231      1.0  0.93963  0.08750  0.81120  1.0000
  I   I232      1.0  0.99217  0.31214  0.08590  1.0000
  I   I233      1.0  0.97628  0.32896  0.40767  1.0000
  I   I234      1.0  0.98998  0.29882  0.75541  1.0000
  I   I235      1.0  0.01061  0.51356  0.23685  1.0000
  I   I236      1.0  0.02035  0.50639  0.58250  1.0000
  I   I237      1.0  0.01806  0.51531  0.90025  1.0000
  I   I238      1.0  0.95428  0.83805  0.31479  1.0000
  I   I239      1.0  0.92985  0.84360  0.63893  1.0000
  I   I240      1.0  0.93539  0.83331  0.97281  1.0000
  I   I241      1.0  0.20994  0.01937  0.14995  1.0000
  I   I242      1.0  0.17752  0.01980  0.53733  1.0000
  I   I243      1.0  0.19952  0.03316  0.82351  1.0000
  I   I244      1.0  0.25033  0.28157  0.34265  1.0000
  I   I245      1.0  0.21750  0.25004  0.70486  1.0000
  I   I246      1.0  0.24291  0.25282  0.03356  1.0000
  I   I247      1.0  0.14116  0.56887  0.41856  1.0000
  I   I248      1.0  0.16137  0.56555  0.73029  1.0000
  I   I249      1.0  0.16254  0.55968  0.09616  1.0000
  I   I250      1.0  0.19614  0.82837  0.32480  1.0000
  I   I251      1.0  0.19622  0.80936  0.65503  1.0000
  I   I252      1.0  0.15718  0.80348  0.99890  1.0000
  I   I253      1.0  0.47167  0.00398  0.30803  1.0000
  I   I254      1.0  0.45587  0.00038  0.60490  1.0000
  I   I255      1.0  0.47694  0.98251  0.94278  1.0000
  I   I256      1.0  0.39805  0.30763  0.41598  1.0000
  I   I257      1.0  0.41750  0.31178  0.76914  1.0000
  I   I258      1.0  0.40061  0.30120  0.07642  1.0000
  I   I259      1.0  0.39774  0.56731  0.31240  1.0000
  I   I260      1.0  0.39256  0.55958  0.67982  1.0000
  I   I261      1.0  0.39863  0.57685  0.99791  1.0000
  I   I262      1.0  0.41256  0.79842  0.11287  1.0000
  I   I263      1.0  0.37811  0.78926  0.45570  1.0000
  I   I264      1.0  0.41818  0.78074  0.77499  1.0000
  I   I265      1.0  0.66762  0.08442  0.33739  1.0000
  I   I266      1.0  0.63822  0.07868  0.65164  1.0000
  I   I267      1.0  0.65673  0.05082  0.97896  1.0000
  I   I268      1.0  0.69192  0.28076  0.27500  1.0000
  I   I269      1.0  0.68025  0.30277  0.62427  1.0000
  I   I270      1.0  0.67329  0.27637  0.94530  1.0000
  I   I271      1.0  0.73710  0.49848  0.14807  1.0000
  I   I272      1.0  0.73445  0.49622  0.48845  1.0000
  I   I273      1.0  0.73003  0.50505  0.83550  1.0000
  I   I274      1.0  0.71060  0.74680  0.31687  1.0000
  I   I275      1.0  0.68613  0.75566  0.64188  1.0000
  I   I276      1.0  0.68688  0.74644  0.97708  1.0000
  I   I277      1.0  0.90239  0.04663  0.26809  1.0000
  I   I278      1.0  0.88684  0.05367  0.60049  1.0000
  I   I279      1.0  0.87486  0.06069  0.91763  1.0000
  I   I280      1.0  0.94715  0.25514  0.17120  1.0000
  I   I281      1.0  0.96486  0.24350  0.48461  1.0000
  I   I282      1.0  0.95548  0.24214  0.85789  1.0000
  I   I283      1.0  0.95301  0.46862  0.32386  1.0000
  I   I284      1.0  0.95790  0.47171  0.67374  1.0000
  I   I285      1.0  0.96804  0.47001  0.00817  1.0000
  I   I286      1.0  0.88946  0.79716  0.38778  1.0000
  I   I287      1.0  0.88714  0.78640  0.71033  1.0000
  I   I288      1.0  0.88345  0.78885  0.07758  1.0000
  I   I289      1.0  0.03149  0.14819  0.03570  1.0000
  I   I290      1.0  0.02297  0.16405  0.32790  1.0000
  I   I291      1.0  0.02840  0.13821  0.70734  1.0000
  I   I292      1.0  0.08428  0.31179  0.20704  1.0000
  I   I293      1.0  0.07721  0.32598  0.51041  1.0000
  I   I294      1.0  0.05339  0.34894  0.86727  1.0000
  I   I295      1.0  0.99082  0.68965  0.23647  1.0000
  I   I296      1.0  0.00097  0.68962  0.58534  1.0000
  I   I297      1.0  0.01294  0.68799  0.90323  1.0000
  I   I298      1.0  0.99870  0.93670  0.18132  1.0000
  I   I299      1.0  0.02209  0.91736  0.49738  1.0000
  I   I300      1.0  0.01970  0.91356  0.83683  1.0000
  I   I301      1.0  0.33831  0.13935  0.11780  1.0000
  I   I302      1.0  0.30993  0.16729  0.41451  1.0000
  I   I303      1.0  0.30849  0.14624  0.81226  1.0000
  I   I304      1.0  0.24666  0.48419  0.21885  1.0000
  I   I305      1.0  0.25104  0.42826  0.59331  1.0000
  I   I306      1.0  0.27021  0.47618  0.90379  1.0000
  I   I307      1.0  0.23495  0.68536  0.21270  1.0000
  I   I308      1.0  0.25814  0.70522  0.52736  1.0000
  I   I309      1.0  0.24674  0.73582  0.85836  1.0000
  I   I310      1.0  0.37169  0.88449  0.00717  1.0000
  I   I311      1.0  0.23856  0.95558  0.32462  1.0000
  I   I312      1.0  0.29460  0.95580  0.63323  1.0000
  I   I313      1.0  0.51049  0.18459  0.13445  1.0000
  I   I314      1.0  0.49971  0.20136  0.48543  1.0000
  I   I315      1.0  0.52625  0.19437  0.86565  1.0000
  I   I316      1.0  0.51698  0.42073  0.15678  1.0000
  I   I317      1.0  0.51331  0.40406  0.44453  1.0000
  I   I318      1.0  0.53840  0.36838  0.77896  1.0000
  I   I319      1.0  0.57384  0.60661  0.00284  1.0000
  I   I320      1.0  0.56166  0.61340  0.33418  1.0000
  I   I321      1.0  0.56998  0.62460  0.65412  1.0000
  I   I322      1.0  0.54420  0.88550  0.15115  1.0000
  I   I323      1.0  0.54905  0.90118  0.46774  1.0000
  I   I324      1.0  0.54328  0.91281  0.81193  1.0000
  I   I325      1.0  0.76565  0.19107  0.09398  1.0000
  I   I326      1.0  0.75375  0.18685  0.40898  1.0000
  I   I327      1.0  0.75009  0.19496  0.76412  1.0000
  I   I328      1.0  0.80021  0.41147  0.00328  1.0000
  I   I329      1.0  0.79539  0.38119  0.32644  1.0000
  I   I330      1.0  0.79412  0.36804  0.69555  1.0000
  I   I331      1.0  0.82436  0.63433  0.16476  1.0000
  I   I332      1.0  0.83287  0.60634  0.50313  1.0000
  I   I333      1.0  0.81563  0.63131  0.84570  1.0000
  I   I334      1.0  0.76061  0.95327  0.22485  1.0000
  I   I335      1.0  0.73430  0.93847  0.54963  1.0000
  I   I336      1.0  0.75049  0.93338  0.91749  1.0000
  I   I337      1.0  0.05387  0.22108  0.95372  1.0000
  I   I338      1.0  0.07729  0.21456  0.28200  1.0000
  I   I339      1.0  0.04373  0.21385  0.61236  1.0000
  I   I340      1.0  0.07258  0.40382  0.09245  1.0000
  I   I341      1.0  0.07918  0.42402  0.45721  1.0000
  I   I342      1.0  0.06985  0.41943  0.78640  1.0000
  I   I343      1.0  0.02240  0.75291  0.15065  1.0000
  I   I344      1.0  0.02495  0.76892  0.52973  1.0000
  I   I345      1.0  0.04347  0.75733  0.82912  1.0000
  I   I346      1.0  0.03300  0.98989  0.05297  1.0000
  I   I347      1.0  0.03102  0.99464  0.40265  1.0000
  I   I348      1.0  0.03968  0.98295  0.73524  1.0000
  I   I349      1.0  0.38983  0.18856  0.02105  1.0000
  I   I350      1.0  0.37869  0.20285  0.37503  1.0000
  I   I351      1.0  0.35487  0.19180  0.70338  1.0000
  I   I352      1.0  0.31980  0.50728  0.16103  1.0000
  I   I353      1.0  0.27594  0.50258  0.53563  1.0000
  I   I354      1.0  0.33143  0.50807  0.81492  1.0000
  I   I355      1.0  0.24764  0.77277  0.13299  1.0000
  I   I356      1.0  0.29118  0.75770  0.42637  1.0000
  I   I357      1.0  0.29930  0.76983  0.73747  1.0000
  I   I358      1.0  0.39994  0.95319  0.89105  1.0000
  I   I359      1.0  0.29327  0.99764  0.23472  1.0000
  I   I360      1.0  0.34762  0.97815  0.50919  1.0000
  I   I361      1.0  0.55467  0.24184  0.03095  1.0000
  I   I362      1.0  0.52716  0.27408  0.42913  1.0000
  I   I363      1.0  0.56876  0.25637  0.77469  1.0000
  I   I364      1.0  0.54281  0.47371  0.03403  1.0000
  I   I365      1.0  0.54493  0.46896  0.35020  1.0000
  I   I366      1.0  0.52548  0.46696  0.74789  1.0000
  I   I367      1.0  0.58014  0.68755  0.90468  1.0000
  I   I368      1.0  0.57960  0.68615  0.24401  1.0000
  I   I369      1.0  0.61609  0.68974  0.59687  1.0000
  I   I370      1.0  0.57591  0.94382  0.05950  1.0000
  I   I371      1.0  0.60890  0.93279  0.37994  1.0000
  I   I372      1.0  0.59679  0.94588  0.70656  1.0000
  I   I373      1.0  0.81310  0.24638  0.02130  1.0000
  I   I374      1.0  0.81037  0.23891  0.34317  1.0000
  I   I375      1.0  0.79114  0.25025  0.65391  1.0000
  I   I376      1.0  0.85803  0.44142  0.90353  1.0000
  I   I377      1.0  0.83232  0.44129  0.21886  1.0000
  I   I378      1.0  0.83246  0.42683  0.58778  1.0000
  I   I379      1.0  0.89382  0.65574  0.06342  1.0000
  I   I380      1.0  0.86405  0.66332  0.40597  1.0000
  I   I381      1.0  0.85757  0.67237  0.74600  1.0000
  I   I382      1.0  0.82751  0.99153  0.14712  1.0000
  I   I383      1.0  0.78429  0.99769  0.50011  1.0000
  I   I384      1.0  0.79184  0.98445  0.81198  1.0000
