data_image0
_chemical_formula_structural       Ti96I384
_chemical_formula_sum              "Ti96 I384"
_cell_length_a       82.0455
_cell_length_b       81.5566
_cell_length_c       39.8313
_cell_angle_alpha    88.7757
_cell_angle_beta     88.7757
_cell_angle_gamma    62.1586

_space_group_name_H-M_alt    "P 1"
_space_group_IT_number       1

loop_
  _space_group_symop_operation_xyz
  'x, y, z'

loop_
  _atom_site_type_symbol
  _atom_site_label
  _atom_site_symmetry_multiplicity
  _atom_site_fract_x
  _atom_site_fract_y
  _atom_site_fract_z
  _atom_site_occupancy
  Ti  Ti1       1.0  0.86897  0.03368  0.72209  1.0000
  Ti  Ti2       1.0  0.66239  0.49694  0.66351  1.0000
  Ti  Ti3       1.0  0.03355  0.97174  0.43841  1.0000
  Ti  Ti4       1.0  0.31838  0.80418  0.76808  1.0000
  Ti  Ti5       1.0  0.85451  0.32373  0.58373  1.0000
  Ti  Ti6       1.0  0.14421  0.13102  0.04805  1.0000
  Ti  Ti7       1.0  0.45558  0.56658  0.58030  1.0000
  Ti  Ti8       1.0  0.22368  0.71543  0.52383  1.0000
  Ti  Ti9       1.0  0.11052  0.99441  0.51195  1.0000
  Ti  Ti10      1.0  0.79652  0.17069  0.02628  1.0000
  Ti  Ti11      1.0  0.38863  0.75563  0.51285  1.0000
  Ti  Ti12      1.0  0.41116  0.18486  0.96500  1.0000
  Ti  Ti13      1.0  0.39606  0.59063  0.27248  1.0000
  Ti  Ti14      1.0  0.35414  0.77017  0.85969  1.0000
  Ti  Ti15      1.0  0.50048  0.51995  0.91967  1.0000
  Ti  Ti16      1.0  0.88245  0.92233  0.72938  1.0000
  Ti  Ti17      1.0  0.70726  0.99744  0.57617  1.0000
  Ti  Ti18      1.0  0.24573  0.46502  0.46399  1.0000
  Ti  Ti19      1.0  0.54574  0.96618  0.30920  1.0000
  Ti  Ti20      1.0  0.69364  0.84709  0.74687  1.0000
  Ti  Ti21      1.0  0.17895  0.39837  0.47264  1.0000
  Ti  Ti22      1.0  0.21493  0.41084  0.73200  1.0000
  Ti  Ti23      1.0  0.32723  0.88892  0.31428  1.0000
  Ti  Ti24      1.0  0.02174  0.21398  0.94913  1.0000
  Ti  Ti25      1.0  0.12734  0.01497  0.90595  1.0000
  Ti  Ti26      1.0  0.34970  0.44029  0.71486  1.0000
  Ti  Ti27      1.0  0.15186  0.77448  0.18584  1.0000
  Ti  Ti28      1.0  0.19026  0.33800  0.05713  1.0000
  Ti  Ti29      1.0  0.61339  0.71077  0.41928  1.0000
  Ti  Ti30      1.0  0.73587  0.50390  0.35126  1.0000
  Ti  Ti31      1.0  0.86877  0.99707  0.94211  1.0000
  Ti  Ti32      1.0  0.83358  0.46901  0.99330  1.0000
  Ti  Ti33      1.0  0.94572  0.93322  0.60441  1.0000
  Ti  Ti34      1.0  0.59090  0.62506  0.85723  1.0000
  Ti  Ti35      1.0  0.94657  0.44465  0.09533  1.0000
  Ti  Ti36      1.0  0.57159  0.59054  0.53296  1.0000
  Ti  Ti37      1.0  0.24422  0.02962  0.31496  1.0000
  Ti  Ti38      1.0  0.72000  0.57814  0.64266  1.0000
  Ti  Ti39      1.0  0.79998  0.17563  0.92154  1.0000
  Ti  Ti40      1.0  0.92209  0.00811  0.32613  1.0000
  Ti  Ti41      1.0  0.50698  0.71289  0.99336  1.0000
  Ti  Ti42      1.0  0.13535  0.69531  0.98375  1.0000
  Ti  Ti43      1.0  0.33027  0.75437  0.52257  1.0000
  Ti  Ti44      1.0  0.34059  0.41901  0.15947  1.0000
  Ti  Ti45      1.0  0.71032  0.35984  0.35626  1.0000
  Ti  Ti46      1.0  0.12892  0.51685  0.26706  1.0000
  Ti  Ti47      1.0  0.06282  0.76095  0.35846  1.0000
  Ti  Ti48      1.0  0.16349  0.21567  0.92350  1.0000
  Ti  Ti49      1.0  0.43042  0.70058  0.09416  1.0000
  Ti  Ti50      1.0  0.20371  0.53777  0.73120  1.0000
  Ti  Ti51      1.0  0.36364  0.91386  0.31629  1.0000
  Ti  Ti52      1.0  0.18838  0.27289  0.38904  1.0000
  Ti  Ti53      1.0  0.61414  0.63241  0.21165  1.0000
  Ti  Ti54      1.0  0.03757  0.81182  0.18479  1.0000
  Ti  Ti55      1.0  0.87997  0.70336  0.64992  1.0000
  Ti  Ti56      1.0  0.66433  0.38488  0.65017  1.0000
  Ti  Ti57      1.0  0.14364  0.96158  0.54825  1.0000
  Ti  Ti58      1.0  0.91987  0.72293  0.98042  1.0000
  Ti  Ti59      1.0  0.85086  0.96125  0.76912  1.0000
  Ti  Ti60      1.0  0.51279  0.93452  0.41564  1.0000
  Ti  Ti61      1.0  0.59399  0.20996  0.71353  1.0000
  Ti  Ti62      1.0  0.44544  0.55597  0.21403  1.0000
  Ti  Ti63      1.0  0.24021  0.37418  0.23709  1.0000
  Ti  Ti64      1.0  0.26654  0.46211  0.40223  1.0000
  Ti  Ti65      1.0  0.48605  0.30864  0.92373  1.0000
  Ti  Ti66      1.0  0.93595  0.10209  0.20770  1.0000
  Ti  Ti67      1.0  0.80811  0.83892  0.63117  1.0000
  Ti  Ti68      1.0  0.35646  0.27849  0.04759  1.0000
  Ti  Ti69      1.0  0.38017  0.43445  0.77567  1.0000
  Ti  Ti70      1.0  0.40722  0.88303  0.89229  1.0000
  Ti  Ti71      1.0  0.69820  0.59813  0.96040  1.0000
  Ti  Ti72      1.0  0.31916  0.79863  0.27307  1.0000
  Ti  Ti73      1.0  0.06829  0.06846  0.16043  1.0000
  Ti  Ti74      1.0  0.08073  0.01659  0.93072  1.0000
  Ti  Ti75      1.0  0.38761  0.73015  0.13188  1.0000
  Ti  Ti76      1.0  0.88972  0.55232  0.60395  1.0000
  Ti  Ti77      1.0  0.46256  0.52224  0.88011  1.0000
  Ti  Ti78      1.0  0.72140  0.25130  0.20740  1.0000
  Ti  Ti79      1.0  0.16475  0.71638  0.65134  1.0000
  Ti  Ti80      1.0  0.86079  0.80212  0.43479  1.0000
  Ti  Ti81      1.0  0.58823  0.40528  0.79981  1.0000
  Ti  Ti82      1.0  0.18388  0.01983  0.71447  1.0000
  Ti  Ti83      1.0  0.75844  0.33322  0.41933  1.0000
  Ti  Ti84      1.0  0.58514  0.59564  0.59189  1.0000
  Ti  Ti85      1.0  0.27662  0.01150  0.41204  1.0000
  Ti  Ti86      1.0  0.44213  0.60789  0.50750  1.0000
  Ti  Ti87      1.0  0.00531  0.82281  0.78725  1.0000
  Ti  Ti88      1.0  0.74211  0.00247  0.17897  1.0000
  Ti  Ti89      1.0  0.62627  0.32468  0.93427  1.0000
  Ti  Ti90      1.0  0.66922  0.03973  0.52213  1.0000
  Ti  Ti91      1.0  0.76166  0.46009  0.37296  1.0000
  Ti  Ti92      1.0  0.86566  0.23451  0.00384  1.0000
  Ti  Ti93      1.0  0.98351  0.35332  0.58333  1.0000
  Ti  Ti94      1.0  0.18403  0.23375  0.91990  1.0000
  Ti  Ti95      1.0  0.52246  0.79740  0.59387  1.0000
  Ti  Ti96      1.0  0.71997  0.01892  0.77280  1.0000
  I   I1        1.0  0.03840  0.78449  0.31438  1.0000
  I   I2        1.0  0.37858  0.92162  0.26292  1.0000
  I   I3        1.0  0.36031  0.72644  0.10668  1.0000
  I   I4        1.0  0.60813  0.60257  0.18306  1.0000
  I   I5        1.0  0.15583  0.10190  0.01157  1.0000
  I   I6        1.0  0.01830  0.83773  0.14287  1.0000
  I   I7        1.0  0.26402  0.70181  0.50221  1.0000
  I   I8        1.0  0.63545  0.41113  0.63033  1.0000
  I   I9        1.0  0.12138  0.95767  0.49746  1.0000
  I   I10       1.0  0.85193  0.02580  0.97869  1.0000
  I   I11       1.0  0.38441  0.73901  0.57622  1.0000
  I   I12       1.0  0.82523  0.33715  0.62010  1.0000
  I   I13       1.0  0.36245  0.61903  0.25144  1.0000
  I   I14       1.0  0.22341  0.35324  0.23814  1.0000
  I   I15       1.0  0.46280  0.55129  0.91211  1.0000
  I   I16       1.0  0.94116  0.02828  0.32998  1.0000
  I   I17       1.0  0.88760  0.20324  0.96495  1.0000
  I   I18       1.0  0.21861  0.46196  0.49413  1.0000
  I   I19       1.0  0.27222  0.37026  0.24688  1.0000
  I   I20       1.0  0.41679  0.74697  0.54898  1.0000
  I   I21       1.0  0.25079  0.68206  0.55624  1.0000
  I   I22       1.0  0.60391  0.42250  0.77193  1.0000
  I   I23       1.0  0.77794  0.99041  0.17392  1.0000
  I   I24       1.0  0.43331  0.85261  0.91420  1.0000
  I   I25       1.0  0.14623  0.98114  0.88025  1.0000
  I   I26       1.0  0.44690  0.66727  0.06551  1.0000
  I   I27       1.0  0.95024  0.41960  0.05356  1.0000
  I   I28       1.0  0.22766  0.32395  0.06031  1.0000
  I   I29       1.0  0.75119  0.24034  0.17007  1.0000
  I   I30       1.0  0.73511  0.53082  0.39214  1.0000
  I   I31       1.0  0.86911  0.81740  0.47849  1.0000
  I   I32       1.0  0.59285  0.40682  0.86394  1.0000
  I   I33       1.0  0.18683  0.68476  0.61258  1.0000
  I   I34       1.0  0.96116  0.46614  0.09606  1.0000
  I   I35       1.0  0.58115  0.61578  0.65223  1.0000
  I   I36       1.0  0.57261  0.61352  0.89357  1.0000
  I   I37       1.0  0.26854  0.03163  0.46146  1.0000
  I   I38       1.0  0.76899  0.18372  0.07319  1.0000
  I   I39       1.0  0.31399  0.00121  0.40555  1.0000
  I   I40       1.0  0.33664  0.42613  0.09761  1.0000
  I   I41       1.0  0.16857  0.55131  0.73787  1.0000
  I   I42       1.0  0.91186  0.00550  0.38922  1.0000
  I   I43       1.0  0.90646  0.71347  0.92764  1.0000
  I   I44       1.0  0.70774  0.38777  0.31668  1.0000
  I   I45       1.0  0.74698  0.35293  0.34611  1.0000
  I   I46       1.0  0.51876  0.81141  0.65114  1.0000
  I   I47       1.0  0.06807  0.77441  0.41588  1.0000
  I   I48       1.0  0.13451  0.22187  0.96009  1.0000
  I   I49       1.0  0.41052  0.69161  0.13337  1.0000
  I   I50       1.0  0.68169  0.47874  0.72040  1.0000
  I   I51       1.0  0.33957  0.95381  0.32571  1.0000
  I   I52       1.0  0.84492  0.78322  0.46466  1.0000
  I   I53       1.0  0.63983  0.61643  0.16607  1.0000
  I   I54       1.0  0.05701  0.81845  0.22874  1.0000
  I   I55       1.0  0.45616  0.62947  0.50107  1.0000
  I   I56       1.0  0.15210  0.42579  0.50641  1.0000
  I   I57       1.0  0.48708  0.81517  0.57277  1.0000
  I   I58       1.0  0.78949  0.14712  0.92024  1.0000
  I   I59       1.0  0.82708  0.98714  0.73411  1.0000
  I   I60       1.0  0.50239  0.90975  0.41298  1.0000
  I   I61       1.0  0.47049  0.56160  0.24447  1.0000
  I   I62       1.0  0.38622  0.57098  0.32294  1.0000
  I   I63       1.0  0.71843  0.82500  0.71011  1.0000
  I   I64       1.0  0.91444  0.91219  0.71105  1.0000
  I   I65       1.0  0.88759  0.03745  0.31190  1.0000
  I   I66       1.0  0.16261  0.36900  0.05848  1.0000
  I   I67       1.0  0.54402  0.96491  0.37380  1.0000
  I   I68       1.0  0.69651  0.87134  0.78617  1.0000
  I   I69       1.0  0.31421  0.46249  0.70917  1.0000
  I   I70       1.0  0.37786  0.88439  0.91404  1.0000
  I   I71       1.0  0.34016  0.90627  0.27159  1.0000
  I   I72       1.0  0.31849  0.79314  0.21043  1.0000
  I   I73       1.0  0.17311  0.77128  0.13126  1.0000
  I   I74       1.0  0.35283  0.41883  0.78368  1.0000
  I   I75       1.0  0.39236  0.40531  0.73715  1.0000
  I   I76       1.0  0.44274  0.53987  0.82799  1.0000
  I   I77       1.0  0.49268  0.48779  0.90555  1.0000
  I   I78       1.0  0.86343  0.01340  0.87709  1.0000
  I   I79       1.0  0.91051  0.95179  0.61655  1.0000
  I   I80       1.0  0.86049  0.01200  0.69696  1.0000
  I   I81       1.0  0.84199  0.46650  0.92687  1.0000
  I   I82       1.0  0.20576  0.98879  0.68765  1.0000
  I   I83       1.0  0.67390  0.38258  0.36521  1.0000
  I   I84       1.0  0.54697  0.60241  0.59387  1.0000
  I   I85       1.0  0.28476  0.98052  0.44534  1.0000
  I   I86       1.0  0.18595  0.32338  0.11381  1.0000
  I   I87       1.0  0.77117  0.19310  0.88144  1.0000
  I   I88       1.0  0.82081  0.15275  0.97420  1.0000
  I   I89       1.0  0.56715  0.64217  0.80993  1.0000
  I   I90       1.0  0.22023  0.51510  0.68256  1.0000
  I   I91       1.0  0.78974  0.43829  0.34259  1.0000
  I   I92       1.0  0.86064  0.26391  0.96918  1.0000
  I   I93       1.0  0.37398  0.40831  0.16201  1.0000
  I   I94       1.0  0.17403  0.22472  0.98204  1.0000
  I   I95       1.0  0.14763  0.53483  0.28383  1.0000
  I   I96       1.0  0.22269  0.39741  0.66925  1.0000
  I   I97       1.0  0.01806  0.99482  0.38120  1.0000
  I   I98       1.0  0.83892  0.06025  0.74570  1.0000
  I   I99       1.0  0.63868  0.53085  0.66628  1.0000
  I   I100      1.0  0.35675  0.77842  0.92130  1.0000
  I   I101      1.0  0.72195  0.03582  0.20745  1.0000
  I   I102      1.0  0.84362  0.30491  0.54397  1.0000
  I   I103      1.0  0.42032  0.60326  0.55184  1.0000
  I   I104      1.0  0.84366  0.71668  0.63737  1.0000
  I   I105      1.0  0.53565  0.69780  0.02245  1.0000
  I   I106      1.0  0.44545  0.16552  0.96929  1.0000
  I   I107      1.0  0.78177  0.19857  0.97445  1.0000
  I   I108      1.0  0.39580  0.16910  0.93579  1.0000
  I   I109      1.0  0.53430  0.50984  0.93061  1.0000
  I   I110      1.0  0.45589  0.55080  0.14718  1.0000
  I   I111      1.0  0.66111  0.86001  0.72194  1.0000
  I   I112      1.0  0.22977  0.48673  0.40167  1.0000
  I   I113      1.0  0.47709  0.33807  0.88879  1.0000
  I   I114      1.0  0.68691  0.04716  0.46397  1.0000
  I   I115      1.0  0.84202  0.83090  0.63420  1.0000
  I   I116      1.0  0.79128  0.86914  0.59452  1.0000
  I   I117      1.0  0.38533  0.25121  0.07065  1.0000
  I   I118      1.0  0.74410  0.01722  0.71614  1.0000
  I   I119      1.0  0.79847  0.81297  0.61258  1.0000
  I   I120      1.0  0.09110  0.75617  0.31890  1.0000
  I   I121      1.0  0.07295  0.09256  0.12606  1.0000
  I   I122      1.0  0.08452  0.00122  0.87257  1.0000
  I   I123      1.0  0.42089  0.73250  0.13597  1.0000
  I   I124      1.0  0.69929  0.51494  0.36326  1.0000
  I   I125      1.0  0.90137  0.56833  0.55769  1.0000
  I   I126      1.0  0.69052  0.27040  0.17170  1.0000
  I   I127      1.0  0.94364  0.91779  0.54831  1.0000
  I   I128      1.0  0.38738  0.75856  0.82741  1.0000
  I   I129      1.0  0.30558  0.87724  0.34543  1.0000
  I   I130      1.0  0.58600  0.59223  0.47663  1.0000
  I   I131      1.0  0.16541  0.02271  0.77106  1.0000
  I   I132      1.0  0.91001  0.46187  0.09326  1.0000
  I   I133      1.0  0.81841  0.19021  0.89045  1.0000
  I   I134      1.0  0.74906  0.56117  0.68922  1.0000
  I   I135      1.0  0.93384  0.08793  0.15207  1.0000
  I   I136      1.0  0.13643  0.66915  0.94604  1.0000
  I   I137      1.0  0.17315  0.28193  0.45152  1.0000
  I   I138      1.0  0.58974  0.33395  0.93058  1.0000
  I   I139      1.0  0.77843  0.43966  0.42674  1.0000
  I   I140      1.0  0.93300  0.09226  0.26759  1.0000
  I   I141      1.0  0.98021  0.38589  0.61987  1.0000
  I   I142      1.0  0.16379  0.18205  0.90629  1.0000
  I   I143      1.0  0.00930  0.96494  0.47814  1.0000
  I   I144      1.0  0.23587  0.42135  0.75556  1.0000
  I   I145      1.0  0.88522  0.02373  0.78279  1.0000
  I   I146      1.0  0.65275  0.46921  0.65364  1.0000
  I   I147      1.0  0.02959  0.94770  0.40179  1.0000
  I   I148      1.0  0.16573  0.29923  0.35640  1.0000
  I   I149      1.0  0.88208  0.29844  0.62610  1.0000
  I   I150      1.0  0.17061  0.14077  0.03168  1.0000
  I   I151      1.0  0.89447  0.69036  0.59581  1.0000
  I   I152      1.0  0.18962  0.71475  0.50733  1.0000
  I   I153      1.0  0.15392  0.93599  0.60357  1.0000
  I   I154      1.0  0.35231  0.76409  0.48797  1.0000
  I   I155      1.0  0.41082  0.74005  0.45858  1.0000
  I   I156      1.0  0.55040  0.91231  0.43653  1.0000
  I   I157      1.0  0.49944  0.51538  0.85118  1.0000
  I   I158      1.0  0.21786  0.39577  0.28602  1.0000
  I   I159      1.0  0.61139  0.17922  0.74627  1.0000
  I   I160      1.0  0.28058  0.45979  0.33999  1.0000
  I   I161      1.0  0.65613  0.07360  0.53886  1.0000
  I   I162      1.0  0.25581  0.43558  0.41503  1.0000
  I   I163      1.0  0.52809  0.95592  0.25999  1.0000
  I   I164      1.0  0.11456  0.51655  0.33053  1.0000
  I   I165      1.0  0.20536  0.38535  0.51768  1.0000
  I   I166      1.0  0.70152  0.00477  0.79688  1.0000
  I   I167      1.0  0.55244  0.42871  0.77673  1.0000
  I   I168      1.0  0.03441  0.20885  0.88874  1.0000
  I   I169      1.0  0.07775  0.98648  0.95887  1.0000
  I   I170      1.0  0.04664  0.04124  0.93153  1.0000
  I   I171      1.0  0.16003  0.74108  0.20934  1.0000
  I   I172      1.0  0.86551  0.54752  0.57475  1.0000
  I   I173      1.0  0.63188  0.69585  0.47599  1.0000
  I   I174      1.0  0.71836  0.51552  0.29100  1.0000
  I   I175      1.0  0.94599  0.97682  0.29482  1.0000
  I   I176      1.0  0.85036  0.48706  0.01247  1.0000
  I   I177      1.0  0.16574  0.70796  0.71438  1.0000
  I   I178      1.0  0.19278  0.04275  0.74593  1.0000
  I   I179      1.0  0.69838  0.34664  0.30441  1.0000
  I   I180      1.0  0.20815  0.04828  0.32551  1.0000
  I   I181      1.0  0.39055  0.20474  0.02169  1.0000
  I   I182      1.0  0.48922  0.55000  0.60988  1.0000
  I   I183      1.0  0.03221  0.81855  0.74860  1.0000
  I   I184      1.0  0.71991  0.01263  0.12750  1.0000
  I   I185      1.0  0.65366  0.29250  0.92719  1.0000
  I   I186      1.0  0.14973  0.69018  0.04549  1.0000
  I   I187      1.0  0.83190  0.24943  0.03101  1.0000
  I   I188      1.0  0.30409  0.44460  0.16760  1.0000
  I   I189      1.0  0.99276  0.85936  0.78535  1.0000
  I   I190      1.0  0.14371  0.49832  0.20589  1.0000
  I   I191      1.0  0.74430  0.98417  0.57101  1.0000
  I   I192      1.0  0.06868  0.95318  0.43310  1.0000
  I   I193      1.0  0.72432  0.22174  0.23336  1.0000
  I   I194      1.0  0.68855  0.82259  0.78371  1.0000
  I   I195      1.0  0.01008  0.00292  0.48053  1.0000
  I   I196      1.0  0.34570  0.80489  0.81462  1.0000
  I   I197      1.0  0.91870  0.69711  0.02790  1.0000
  I   I198      1.0  0.12431  0.14848  0.99772  1.0000
  I   I199      1.0  0.81072  0.47906  0.05194  1.0000
  I   I200      1.0  0.67667  0.37268  0.59141  1.0000
  I   I201      1.0  0.14478  0.99555  0.51307  1.0000
  I   I202      1.0  0.84909  0.92467  0.75463  1.0000
  I   I203      1.0  0.36215  0.46489  0.73533  1.0000
  I   I204      1.0  0.41606  0.21020  0.92775  1.0000
  I   I205      1.0  0.40000  0.61500  0.31466  1.0000
  I   I206      1.0  0.32475  0.78889  0.71320  1.0000
  I   I207      1.0  0.49475  0.52255  0.98850  1.0000
  I   I208      1.0  0.89598  0.93731  0.78128  1.0000
  I   I209      1.0  0.66325  0.01647  0.56182  1.0000
  I   I210      1.0  0.18246  0.73709  0.66526  1.0000
  I   I211      1.0  0.40434  0.87463  0.83231  1.0000
  I   I212      1.0  0.22136  0.38696  0.18119  1.0000
  I   I213      1.0  0.40315  0.44890  0.75514  1.0000
  I   I214      1.0  0.21893  0.38781  0.79081  1.0000
  I   I215      1.0  0.38714  0.90741  0.36495  1.0000
  I   I216      1.0  0.00120  0.35122  0.52415  1.0000
  I   I217      1.0  0.09310  0.04364  0.93683  1.0000
  I   I218      1.0  0.36738  0.76355  0.09919  1.0000
  I   I219      1.0  0.08660  0.06380  0.21712  1.0000
  I   I220      1.0  0.44329  0.50663  0.90414  1.0000
  I   I221      1.0  0.59932  0.69144  0.39918  1.0000
  I   I222      1.0  0.92212  0.52358  0.60970  1.0000
  I   I223      1.0  0.87728  0.96435  0.97223  1.0000
  I   I224      1.0  0.83174  0.43494  0.00538  1.0000
  I   I225      1.0  0.95752  0.95612  0.59346  1.0000
  I   I226      1.0  0.21830  0.71292  0.58971  1.0000
  I   I227      1.0  0.95065  0.42724  0.15275  1.0000
  I   I228      1.0  0.57795  0.62649  0.53987  1.0000
  I   I229      1.0  0.91063  0.75100  0.01293  1.0000
  I   I230      1.0  0.67950  0.59189  0.63388  1.0000
  I   I231      1.0  0.81844  0.17915  0.05825  1.0000
  I   I232      1.0  0.36714  0.73244  0.85304  1.0000
  I   I233      1.0  0.48185  0.73757  0.03614  1.0000
  I   I234      1.0  0.70627  0.96739  0.55540  1.0000
  I   I235      1.0  0.31959  0.78481  0.56467  1.0000
  I   I236      1.0  0.94683  0.37971  0.56972  1.0000
  I   I237      1.0  0.74090  0.48555  0.41568  1.0000
  I   I238      1.0  0.54805  0.79340  0.55103  1.0000
  I   I239      1.0  0.69421  0.05047  0.74239  1.0000
  I   I240      1.0  0.21794  0.21571  0.93111  1.0000
  I   I241      1.0  0.86979  0.04861  0.66227  1.0000
  I   I242      1.0  0.69129  0.49285  0.62761  1.0000
  I   I243      1.0  0.35357  0.28659  0.11133  1.0000
  I   I244      1.0  0.73839  0.97372  0.19622  1.0000
  I   I245      1.0  0.57966  0.64634  0.21665  1.0000
  I   I246      1.0  0.13292  0.12353  0.10824  1.0000
  I   I247      1.0  0.46810  0.59387  0.56253  1.0000
  I   I248      1.0  0.17121  0.37358  0.43226  1.0000
  I   I249      1.0  0.17950  0.93990  0.54453  1.0000
  I   I250      1.0  0.85995  0.98606  0.78842  1.0000
  I   I251      1.0  0.37549  0.79485  0.49686  1.0000
  I   I252      1.0  0.57572  0.94946  0.27364  1.0000
  I   I253      1.0  0.46510  0.51724  0.22301  1.0000
  I   I254      1.0  0.31863  0.83370  0.74498  1.0000
  I   I255      1.0  0.56346  0.23146  0.67795  1.0000
  I   I256      1.0  0.49516  0.31815  0.97785  1.0000
  I   I257      1.0  0.26322  0.04446  0.37592  1.0000
  I   I258      1.0  0.24937  0.47524  0.53022  1.0000
  I   I259      1.0  0.80048  0.83927  0.69387  1.0000
  I   I260      1.0  0.09803  0.54433  0.24604  1.0000
  I   I261      1.0  0.18569  0.41934  0.42491  1.0000
  I   I262      1.0  0.18086  0.43563  0.74697  1.0000
  I   I263      1.0  0.67967  0.62366  0.91385  1.0000
  I   I264      1.0  0.57235  0.55990  0.53652  1.0000
  I   I265      1.0  0.15051  0.01552  0.95504  1.0000
  I   I266      1.0  0.37978  0.42896  0.84652  1.0000
  I   I267      1.0  0.08429  0.03490  0.13461  1.0000
  I   I268      1.0  0.93796  0.13498  0.21785  1.0000
  I   I269      1.0  0.71864  0.27998  0.24611  1.0000
  I   I270      1.0  0.18906  0.32081  0.00745  1.0000
  I   I271      1.0  0.89991  0.00109  0.93637  1.0000
  I   I272      1.0  0.59176  0.37666  0.77469  1.0000
  I   I273      1.0  0.95682  0.91236  0.66174  1.0000
  I   I274      1.0  0.50367  0.68917  0.95173  1.0000
  I   I275      1.0  0.15485  0.78488  0.24500  1.0000
  I   I276      1.0  0.58934  0.56637  0.63305  1.0000
  I   I277      1.0  0.15933  0.03213  0.66737  1.0000
  I   I278      1.0  0.71732  0.59461  0.58929  1.0000
  I   I279      1.0  0.33611  0.38930  0.17044  1.0000
  I   I280      1.0  0.22161  0.26217  0.36718  1.0000
  I   I281      1.0  0.49370  0.74829  0.96136  1.0000
  I   I282      1.0  0.10019  0.72040  0.98805  1.0000
  I   I283      1.0  0.32447  0.73600  0.47220  1.0000
  I   I284      1.0  0.02990  0.23774  0.98619  1.0000
  I   I285      1.0  0.98392  0.80962  0.76773  1.0000
  I   I286      1.0  0.52430  0.76566  0.60838  1.0000
  I   I287      1.0  0.28311  0.82118  0.29211  1.0000
  I   I288      1.0  0.18392  0.21193  0.86707  1.0000
  I   I289      1.0  0.34952  0.72854  0.56562  1.0000
  I   I290      1.0  0.71450  0.98767  0.63750  1.0000
  I   I291      1.0  0.33790  0.90875  0.35776  1.0000
  I   I292      1.0  0.18949  0.23909  0.36367  1.0000
  I   I293      1.0  0.63429  0.61552  0.26522  1.0000
  I   I294      1.0  0.01619  0.80389  0.23530  1.0000
  I   I295      1.0  0.42431  0.61577  0.45255  1.0000
  I   I296      1.0  0.67907  0.40086  0.68607  1.0000
  I   I297      1.0  0.07967  0.02267  0.51682  1.0000
  I   I298      1.0  0.95210  0.71692  0.94104  1.0000
  I   I299      1.0  0.87525  0.90417  0.68355  1.0000
  I   I300      1.0  0.99197  0.33478  0.63938  1.0000
  I   I301      1.0  0.61694  0.21470  0.67447  1.0000
  I   I302      1.0  0.43235  0.55886  0.28064  1.0000
  I   I303      1.0  0.50001  0.27861  0.88231  1.0000
  I   I304      1.0  0.27853  0.47727  0.44315  1.0000
  I   I305      1.0  0.87523  0.95080  0.68474  1.0000
  I   I306      1.0  0.43735  0.56980  0.63869  1.0000
  I   I307      1.0  0.23647  0.01401  0.26257  1.0000
  I   I308      1.0  0.21103  0.56597  0.73343  1.0000
  I   I309      1.0  0.22434  0.74641  0.51552  1.0000
  I   I310      1.0  0.41372  0.72096  0.03928  1.0000
  I   I311      1.0  0.67851  0.58097  0.98704  1.0000
  I   I312      1.0  0.04748  0.74139  0.38113  1.0000
  I   I313      1.0  0.03405  0.07982  0.16572  1.0000
  I   I314      1.0  0.11759  0.03110  0.83944  1.0000
  I   I315      1.0  0.36796  0.74247  0.18242  1.0000
  I   I316      1.0  0.87302  0.57526  0.65645  1.0000
  I   I317      1.0  0.97139  0.08633  0.20637  1.0000
  I   I318      1.0  0.58786  0.73939  0.44481  1.0000
  I   I319      1.0  0.14222  0.75507  0.68327  1.0000
  I   I320      1.0  0.32011  0.78223  0.82981  1.0000
  I   I321      1.0  0.88960  0.68000  0.69694  1.0000
  I   I322      1.0  0.58837  0.65666  0.88364  1.0000
  I   I323      1.0  0.71752  0.35056  0.42499  1.0000
  I   I324      1.0  0.61353  0.57754  0.56004  1.0000
  I   I325      1.0  0.26744  0.03194  0.27072  1.0000
  I   I326      1.0  0.45585  0.53803  0.55061  1.0000
  I   I327      1.0  0.75213  0.34292  0.47695  1.0000
  I   I328      1.0  0.80902  0.14124  0.06405  1.0000
  I   I329      1.0  0.61871  0.34758  0.99072  1.0000
  I   I330      1.0  0.64999  0.04543  0.46355  1.0000
  I   I331      1.0  0.00523  0.81868  0.85120  1.0000
  I   I332      1.0  0.69334  0.03906  0.57566  1.0000
  I   I333      1.0  0.62695  0.60740  0.86003  1.0000
  I   I334      1.0  0.18068  0.26776  0.89977  1.0000
  I   I335      1.0  0.36463  0.28884  0.99182  1.0000
  I   I336      1.0  0.74265  0.01548  0.81792  1.0000
  I   I337      1.0  0.45817  0.70595  0.07711  1.0000
  I   I338      1.0  0.22479  0.52267  0.78143  1.0000
  I   I339      1.0  0.31897  0.87754  0.25311  1.0000
  I   I340      1.0  0.83990  0.82756  0.39647  1.0000
  I   I341      1.0  0.98697  0.23781  0.94504  1.0000
  I   I342      1.0  0.06334  0.78785  0.14401  1.0000
  I   I343      1.0  0.89204  0.72571  0.65646  1.0000
  I   I344      1.0  0.66154  0.36428  0.69756  1.0000
  I   I345      1.0  0.11099  0.98429  0.58462  1.0000
  I   I346      1.0  0.41814  0.90649  0.87248  1.0000
  I   I347      1.0  0.84250  0.95312  0.83234  1.0000
  I   I348      1.0  0.51226  0.94414  0.35449  1.0000
  I   I349      1.0  0.58753  0.23262  0.76143  1.0000
  I   I350      1.0  0.41558  0.59388  0.21641  1.0000
  I   I351      1.0  0.28280  0.82489  0.78112  1.0000
  I   I352      1.0  0.27165  0.42754  0.48869  1.0000
  I   I353      1.0  0.45731  0.30640  0.94061  1.0000
  I   I354      1.0  0.46501  0.58152  0.45871  1.0000
  I   I355      1.0  0.53637  0.99926  0.28824  1.0000
  I   I356      1.0  0.33219  0.27000  0.03731  1.0000
  I   I357      1.0  0.34147  0.41382  0.70796  1.0000
  I   I358      1.0  0.85619  0.34844  0.54057  1.0000
  I   I359      1.0  0.69387  0.62595  0.99828  1.0000
  I   I360      1.0  0.31818  0.76639  0.28359  1.0000
  I   I361      1.0  0.12916  0.80963  0.15594  1.0000
  I   I362      1.0  0.11655  0.99104  0.95257  1.0000
  I   I363      1.0  0.35546  0.44110  0.64965  1.0000
  I   I364      1.0  0.73912  0.44863  0.34535  1.0000
  I   I365      1.0  0.61927  0.65934  0.23471  1.0000
  I   I366      1.0  0.63557  0.71349  0.37751  1.0000
  I   I367      1.0  0.13431  0.72543  0.61418  1.0000
  I   I368      1.0  0.89620  0.76815  0.42297  1.0000
  I   I369      1.0  0.36253  0.86163  0.30817  1.0000
  I   I370      1.0  0.10628  0.99950  0.44126  1.0000
  I   I371      1.0  0.75945  0.30118  0.40888  1.0000
  I   I372      1.0  0.02424  0.18128  0.97191  1.0000
  I   I373      1.0  0.26596  0.00144  0.35711  1.0000
  I   I374      1.0  0.73474  0.54491  0.62013  1.0000
  I   I375      1.0  0.79547  0.31863  0.41658  1.0000
  I   I376      1.0  0.72479  0.57011  0.92885  1.0000
  I   I377      1.0  0.63374  0.34771  0.89049  1.0000
  I   I378      1.0  0.14956  0.70865  0.94434  1.0000
  I   I379      1.0  0.77554  0.49117  0.35411  1.0000
  I   I380      1.0  0.88739  0.22607  0.05211  1.0000
  I   I381      1.0  0.49139  0.96586  0.44433  1.0000
  I   I382      1.0  0.14139  0.25651  0.91788  1.0000
  I   I383      1.0  0.29105  0.76708  0.51716  1.0000
  I   I384      1.0  0.34792  0.80274  0.28912  1.0000
