data_image0
_chemical_formula_structural       Ti96I384
_chemical_formula_sum              "Ti96 I384"
_cell_length_a       81.6394
_cell_length_b       81.0987
_cell_length_c       39.5994
_cell_angle_alpha    88.7757
_cell_angle_beta     88.7757
_cell_angle_gamma    62.1586

_space_group_name_H-M_alt    "P 1"
_space_group_IT_number       1

loop_
  _space_group_symop_operation_xyz
  'x, y, z'

loop_
  _atom_site_type_symbol
  _atom_site_label
  _atom_site_symmetry_multiplicity
  _atom_site_fract_x
  _atom_site_fract_y
  _atom_site_fract_z
  _atom_site_occupancy
  Ti  Ti1       1.0  0.82924  0.17171  0.70342  1.0000
  Ti  Ti2       1.0  0.71358  0.31724  0.48000  1.0000
  Ti  Ti3       1.0  0.01359  0.99569  0.29975  1.0000
  Ti  Ti4       1.0  0.44383  0.78181  0.88808  1.0000
  Ti  Ti5       1.0  0.87910  0.34140  0.59753  1.0000
  Ti  Ti6       1.0  0.15862  0.00543  0.90860  1.0000
  Ti  Ti7       1.0  0.44777  0.48993  0.70384  1.0000
  Ti  Ti8       1.0  0.29427  0.69893  0.40618  1.0000
  Ti  Ti9       1.0  0.03187  0.07881  0.59002  1.0000
  Ti  Ti10      1.0  0.85547  0.22614  0.09090  1.0000
  Ti  Ti11      1.0  0.36037  0.77028  0.51154  1.0000
  Ti  Ti12      1.0  0.46345  0.07441  0.77256  1.0000
  Ti  Ti13      1.0  0.48198  0.58813  0.27205  1.0000
  Ti  Ti14      1.0  0.41598  0.76827  0.86985  1.0000
  Ti  Ti15      1.0  0.51929  0.44594  0.92863  1.0000
  Ti  Ti16      1.0  0.87513  0.82084  0.87912  1.0000
  Ti  Ti17      1.0  0.69647  0.00762  0.65891  1.0000
  Ti  Ti18      1.0  0.39257  0.45252  0.46340  1.0000
  Ti  Ti19      1.0  0.50756  0.00824  0.25256  1.0000
  Ti  Ti20      1.0  0.59417  0.79945  0.91063  1.0000
  Ti  Ti21      1.0  0.13850  0.56873  0.58200  1.0000
  Ti  Ti22      1.0  0.33958  0.31301  0.48286  1.0000
  Ti  Ti23      1.0  0.47515  0.94201  0.22388  1.0000
  Ti  Ti24      1.0  0.93294  0.26672  0.82680  1.0000
  Ti  Ti25      1.0  0.05075  0.97517  0.90219  1.0000
  Ti  Ti26      1.0  0.26631  0.58326  0.77751  1.0000
  Ti  Ti27      1.0  0.03443  0.77257  0.38595  1.0000
  Ti  Ti28      1.0  0.24574  0.29463  0.02797  1.0000
  Ti  Ti29      1.0  0.63612  0.78037  0.29706  1.0000
  Ti  Ti30      1.0  0.63645  0.46753  0.14330  1.0000
  Ti  Ti31      1.0  0.79852  0.99896  0.08909  1.0000
  Ti  Ti32      1.0  0.90697  0.38335  0.87848  1.0000
  Ti  Ti33      1.0  0.90941  0.09819  0.54345  1.0000
  Ti  Ti34      1.0  0.54719  0.70320  0.85303  1.0000
  Ti  Ti35      1.0  0.03420  0.30129  0.08567  1.0000
  Ti  Ti36      1.0  0.41503  0.68811  0.74393  1.0000
  Ti  Ti37      1.0  0.24409  0.96369  0.20581  1.0000
  Ti  Ti38      1.0  0.56865  0.67061  0.67372  1.0000
  Ti  Ti39      1.0  0.82187  0.20886  0.06905  1.0000
  Ti  Ti40      1.0  0.86398  0.96701  0.04525  1.0000
  Ti  Ti41      1.0  0.50478  0.71711  0.30906  1.0000
  Ti  Ti42      1.0  0.30193  0.67973  0.71773  1.0000
  Ti  Ti43      1.0  0.36317  0.71953  0.54206  1.0000
  Ti  Ti44      1.0  0.41172  0.42286  0.09552  1.0000
  Ti  Ti45      1.0  0.73744  0.29121  0.27566  1.0000
  Ti  Ti46      1.0  0.95994  0.63146  0.47256  1.0000
  Ti  Ti47      1.0  0.07714  0.65199  0.46050  1.0000
  Ti  Ti48      1.0  0.28896  0.08140  0.86428  1.0000
  Ti  Ti49      1.0  0.38837  0.87071  0.12802  1.0000
  Ti  Ti50      1.0  0.20655  0.45240  0.91104  1.0000
  Ti  Ti51      1.0  0.42134  0.97863  0.26679  1.0000
  Ti  Ti52      1.0  0.02762  0.35128  0.34360  1.0000
  Ti  Ti53      1.0  0.62485  0.52193  0.46218  1.0000
  Ti  Ti54      1.0  0.85643  0.92901  0.96776  1.0000
  Ti  Ti55      1.0  0.02526  0.70565  0.79659  1.0000
  Ti  Ti56      1.0  0.66457  0.30839  0.70057  1.0000
  Ti  Ti57      1.0  0.00105  0.10224  0.67048  1.0000
  Ti  Ti58      1.0  0.96084  0.73933  0.00023  1.0000
  Ti  Ti59      1.0  0.86435  0.85141  0.79791  1.0000
  Ti  Ti60      1.0  0.53855  0.99881  0.30051  1.0000
  Ti  Ti61      1.0  0.60557  0.26805  0.54226  1.0000
  Ti  Ti62      1.0  0.45194  0.59129  0.36623  1.0000
  Ti  Ti63      1.0  0.24473  0.47457  0.11098  1.0000
  Ti  Ti64      1.0  0.38945  0.42310  0.50571  1.0000
  Ti  Ti65      1.0  0.39808  0.25880  0.84593  1.0000
  Ti  Ti66      1.0  0.92973  0.18450  0.29243  1.0000
  Ti  Ti67      1.0  0.84660  0.84348  0.63552  1.0000
  Ti  Ti68      1.0  0.34909  0.30531  0.93282  1.0000
  Ti  Ti69      1.0  0.26105  0.58158  0.86702  1.0000
  Ti  Ti70      1.0  0.32916  0.95471  0.77978  1.0000
  Ti  Ti71      1.0  0.75532  0.48085  0.14713  1.0000
  Ti  Ti72      1.0  0.35432  0.89570  0.45007  1.0000
  Ti  Ti73      1.0  0.15123  0.92966  0.20829  1.0000
  Ti  Ti74      1.0  0.04951  0.95929  0.98460  1.0000
  Ti  Ti75      1.0  0.39615  0.82554  0.16062  1.0000
  Ti  Ti76      1.0  0.86818  0.57974  0.87419  1.0000
  Ti  Ti77      1.0  0.53513  0.45610  0.87835  1.0000
  Ti  Ti78      1.0  0.76889  0.42947  0.94121  1.0000
  Ti  Ti79      1.0  0.08413  0.79649  0.65113  1.0000
  Ti  Ti80      1.0  0.90657  0.68640  0.28416  1.0000
  Ti  Ti81      1.0  0.52254  0.36778  0.50740  1.0000
  Ti  Ti82      1.0  0.30031  0.89791  0.98573  1.0000
  Ti  Ti83      1.0  0.79335  0.27748  0.27993  1.0000
  Ti  Ti84      1.0  0.37071  0.70895  0.73590  1.0000
  Ti  Ti85      1.0  0.24934  0.98558  0.25496  1.0000
  Ti  Ti86      1.0  0.39956  0.50011  0.65029  1.0000
  Ti  Ti87      1.0  0.99422  0.85639  0.86745  1.0000
  Ti  Ti88      1.0  0.77394  0.08657  0.42328  1.0000
  Ti  Ti89      1.0  0.74797  0.12294  0.12909  1.0000
  Ti  Ti90      1.0  0.69285  0.99139  0.56958  1.0000
  Ti  Ti91      1.0  0.73924  0.40827  0.24014  1.0000
  Ti  Ti92      1.0  0.89205  0.20962  0.46006  1.0000
  Ti  Ti93      1.0  0.81395  0.54871  0.57554  1.0000
  Ti  Ti94      1.0  0.29622  0.04975  0.91152  1.0000
  Ti  Ti95      1.0  0.42981  0.81330  0.53352  1.0000
  Ti  Ti96      1.0  0.81470  0.06386  0.93946  1.0000
  I   I1        1.0  0.10946  0.64116  0.43585  1.0000
  I   I2        1.0  0.40811  0.00383  0.31056  1.0000
  I   I3        1.0  0.36677  0.86500  0.17096  1.0000
  I   I4        1.0  0.65224  0.49962  0.41518  1.0000
  I   I5        1.0  0.14951  0.97925  0.91340  1.0000
  I   I6        1.0  0.89271  0.91503  0.96420  1.0000
  I   I7        1.0  0.30772  0.70154  0.47026  1.0000
  I   I8        1.0  0.64920  0.28527  0.70356  1.0000
  I   I9        1.0  0.99319  0.08546  0.62020  1.0000
  I   I10       1.0  0.77676  0.00722  0.04117  1.0000
  I   I11       1.0  0.36926  0.73593  0.47204  1.0000
  I   I12       1.0  0.84330  0.36247  0.61022  1.0000
  I   I13       1.0  0.52148  0.57421  0.27992  1.0000
  I   I14       1.0  0.26194  0.43988  0.14482  1.0000
  I   I15       1.0  0.52490  0.47365  0.94381  1.0000
  I   I16       1.0  0.90060  0.94471  0.05827  1.0000
  I   I17       1.0  0.92571  0.20523  0.47314  1.0000
  I   I18       1.0  0.37651  0.47946  0.42046  1.0000
  I   I19       1.0  0.27050  0.48504  0.10105  1.0000
  I   I20       1.0  0.39313  0.76381  0.50284  1.0000
  I   I21       1.0  0.28350  0.72958  0.38310  1.0000
  I   I22       1.0  0.53434  0.38998  0.47296  1.0000
  I   I23       1.0  0.80493  0.07231  0.38764  1.0000
  I   I24       1.0  0.34249  0.92343  0.81156  1.0000
  I   I25       1.0  0.01825  0.00642  0.89326  1.0000
  I   I26       1.0  0.38173  0.90496  0.16133  1.0000
  I   I27       1.0  0.05030  0.32218  0.07347  1.0000
  I   I28       1.0  0.24632  0.32008  0.06966  1.0000
  I   I29       1.0  0.77496  0.40631  0.99423  1.0000
  I   I30       1.0  0.66260  0.46984  0.09780  1.0000
  I   I31       1.0  0.87229  0.69352  0.29077  1.0000
  I   I32       1.0  0.51956  0.38080  0.57101  1.0000
  I   I33       1.0  0.10274  0.77524  0.60233  1.0000
  I   I34       1.0  0.05639  0.26654  0.09535  1.0000
  I   I35       1.0  0.34605  0.71636  0.78017  1.0000
  I   I36       1.0  0.58360  0.67146  0.84900  1.0000
  I   I37       1.0  0.23399  0.96454  0.27706  1.0000
  I   I38       1.0  0.88735  0.22556  0.07308  1.0000
  I   I39       1.0  0.23469  0.02195  0.26809  1.0000
  I   I40       1.0  0.41154  0.39492  0.05973  1.0000
  I   I41       1.0  0.19040  0.43609  0.94575  1.0000
  I   I42       1.0  0.85299  0.98811  0.99295  1.0000
  I   I43       1.0  0.94223  0.75502  0.05049  1.0000
  I   I44       1.0  0.73365  0.26143  0.28280  1.0000
  I   I45       1.0  0.80090  0.24355  0.26991  1.0000
  I   I46       1.0  0.40687  0.84803  0.53456  1.0000
  I   I47       1.0  0.06893  0.68556  0.48382  1.0000
  I   I48       1.0  0.29580  0.08368  0.92769  1.0000
  I   I49       1.0  0.36628  0.88918  0.07948  1.0000
  I   I50       1.0  0.70029  0.34787  0.43738  1.0000
  I   I51       1.0  0.45822  0.97432  0.25848  1.0000
  I   I52       1.0  0.91713  0.70291  0.33220  1.0000
  I   I53       1.0  0.58828  0.54194  0.48673  1.0000
  I   I54       1.0  0.86610  0.92914  0.89532  1.0000
  I   I55       1.0  0.40972  0.52104  0.69579  1.0000
  I   I56       1.0  0.10445  0.59495  0.55941  1.0000
  I   I57       1.0  0.44524  0.78148  0.57142  1.0000
  I   I58       1.0  0.85099  0.20819  0.14246  1.0000
  I   I59       1.0  0.87641  0.81112  0.81453  1.0000
  I   I60       1.0  0.53975  0.00018  0.36210  1.0000
  I   I61       1.0  0.41923  0.59025  0.37017  1.0000
  I   I62       1.0  0.47814  0.57892  0.21120  1.0000
  I   I63       1.0  0.59306  0.78213  0.85779  1.0000
  I   I64       1.0  0.88141  0.83411  0.93812  1.0000
  I   I65       1.0  0.85760  0.93549  0.03866  1.0000
  I   I66       1.0  0.22167  0.29172  0.99455  1.0000
  I   I67       1.0  0.56957  0.00166  0.28179  1.0000
  I   I68       1.0  0.62697  0.79977  0.88797  1.0000
  I   I69       1.0  0.25623  0.61311  0.74190  1.0000
  I   I70       1.0  0.29415  0.96911  0.79676  1.0000
  I   I71       1.0  0.41340  0.98873  0.20099  1.0000
  I   I72       1.0  0.38415  0.86334  0.41781  1.0000
  I   I73       1.0  0.03583  0.75151  0.34276  1.0000
  I   I74       1.0  0.25575  0.56656  0.73471  1.0000
  I   I75       1.0  0.24130  0.57002  0.90078  1.0000
  I   I76       1.0  0.55674  0.44650  0.81939  1.0000
  I   I77       1.0  0.53270  0.42203  0.87347  1.0000
  I   I78       1.0  0.77481  0.98960  0.12412  1.0000
  I   I79       1.0  0.90153  0.09149  0.48412  1.0000
  I   I80       1.0  0.83602  0.14826  0.65499  1.0000
  I   I81       1.0  0.89188  0.38704  0.81986  1.0000
  I   I82       1.0  0.31016  0.87696  0.92928  1.0000
  I   I83       1.0  0.72049  0.30659  0.22063  1.0000
  I   I84       1.0  0.38759  0.72823  0.72106  1.0000
  I   I85       1.0  0.26092  0.97958  0.31944  1.0000
  I   I86       1.0  0.24962  0.27260  0.08144  1.0000
  I   I87       1.0  0.82987  0.17733  0.10444  1.0000
  I   I88       1.0  0.82234  0.24504  0.06159  1.0000
  I   I89       1.0  0.53076  0.68860  0.82341  1.0000
  I   I90       1.0  0.23361  0.43532  0.86599  1.0000
  I   I91       1.0  0.72675  0.44068  0.20872  1.0000
  I   I92       1.0  0.87708  0.23746  0.42156  1.0000
  I   I93       1.0  0.43078  0.41610  0.15299  1.0000
  I   I94       1.0  0.27938  0.05063  0.84172  1.0000
  I   I95       1.0  0.93744  0.66081  0.43494  1.0000
  I   I96       1.0  0.31760  0.30235  0.45360  1.0000
  I   I97       1.0  0.98204  0.00912  0.26472  1.0000
  I   I98       1.0  0.84075  0.19767  0.68083  1.0000
  I   I99       1.0  0.68231  0.31506  0.47911  1.0000
  I   I100      1.0  0.41753  0.73942  0.91220  1.0000
  I   I101      1.0  0.77939  0.06024  0.47021  1.0000
  I   I102      1.0  0.89668  0.31229  0.63687  1.0000
  I   I103      1.0  0.38334  0.48292  0.61915  1.0000
  I   I104      1.0  0.99227  0.72521  0.77771  1.0000
  I   I105      1.0  0.49639  0.71746  0.37203  1.0000
  I   I106      1.0  0.48658  0.06150  0.82960  1.0000
  I   I107      1.0  0.84502  0.25358  0.14139  1.0000
  I   I108      1.0  0.44694  0.05534  0.80108  1.0000
  I   I109      1.0  0.51718  0.42333  0.97349  1.0000
  I   I110      1.0  0.47559  0.56374  0.40192  1.0000
  I   I111      1.0  0.56869  0.83396  0.92018  1.0000
  I   I112      1.0  0.42505  0.39375  0.51141  1.0000
  I   I113      1.0  0.42595  0.26244  0.82359  1.0000
  I   I114      1.0  0.67248  0.99634  0.63781  1.0000
  I   I115      1.0  0.81492  0.87044  0.64946  1.0000
  I   I116      1.0  0.85550  0.82417  0.58259  1.0000
  I   I117      1.0  0.32086  0.30645  0.89821  1.0000
  I   I118      1.0  0.78933  0.10194  0.93814  1.0000
  I   I119      1.0  0.86985  0.85729  0.64057  1.0000
  I   I120      1.0  0.07048  0.63315  0.50637  1.0000
  I   I121      1.0  0.12894  0.91875  0.18268  1.0000
  I   I122      1.0  0.06058  0.98700  0.96253  1.0000
  I   I123      1.0  0.39527  0.83592  0.09279  1.0000
  I   I124      1.0  0.61581  0.50495  0.14062  1.0000
  I   I125      1.0  0.87084  0.60485  0.90188  1.0000
  I   I126      1.0  0.78376  0.42828  0.88480  1.0000
  I   I127      1.0  0.87733  0.11490  0.57704  1.0000
  I   I128      1.0  0.40640  0.75117  0.81941  1.0000
  I   I129      1.0  0.49585  0.90192  0.22629  1.0000
  I   I130      1.0  0.43021  0.70685  0.76962  1.0000
  I   I131      1.0  0.29076  0.92678  0.94381  1.0000
  I   I132      1.0  0.00986  0.31550  0.13911  1.0000
  I   I133      1.0  0.79177  0.22540  0.10170  1.0000
  I   I134      1.0  0.59422  0.67929  0.66044  1.0000
  I   I135      1.0  0.92746  0.20333  0.24090  1.0000
  I   I136      1.0  0.30167  0.64740  0.68813  1.0000
  I   I137      1.0  0.02238  0.38400  0.35735  1.0000
  I   I138      1.0  0.71876  0.15870  0.15311  1.0000
  I   I139      1.0  0.76130  0.40497  0.29748  1.0000
  I   I140      1.0  0.89872  0.18422  0.30134  1.0000
  I   I141      1.0  0.78305  0.55477  0.54933  1.0000
  I   I142      1.0  0.25883  0.07715  0.91097  1.0000
  I   I143      1.0  0.04033  0.99518  0.26351  1.0000
  I   I144      1.0  0.36994  0.27771  0.47270  1.0000
  I   I145      1.0  0.79557  0.19908  0.69470  1.0000
  I   I146      1.0  0.72917  0.30252  0.53826  1.0000
  I   I147      1.0  0.00728  0.02058  0.34259  1.0000
  I   I148      1.0  0.05376  0.32532  0.37990  1.0000
  I   I149      1.0  0.88736  0.36477  0.62678  1.0000
  I   I150      1.0  0.12539  0.03423  0.90749  1.0000
  I   I151      1.0  0.03416  0.69028  0.73631  1.0000
  I   I152      1.0  0.28348  0.67987  0.34977  1.0000
  I   I153      1.0  0.97500  0.13863  0.66637  1.0000
  I   I154      1.0  0.36805  0.75478  0.57203  1.0000
  I   I155      1.0  0.33073  0.79454  0.46715  1.0000
  I   I156      1.0  0.50763  0.99026  0.31540  1.0000
  I   I157      1.0  0.56149  0.43808  0.92770  1.0000
  I   I158      1.0  0.21315  0.49815  0.13313  1.0000
  I   I159      1.0  0.59917  0.30332  0.56062  1.0000
  I   I160      1.0  0.37351  0.40528  0.52612  1.0000
  I   I161      1.0  0.66563  0.01249  0.52639  1.0000
  I   I162      1.0  0.38540  0.42264  0.43759  1.0000
  I   I163      1.0  0.49927  0.03292  0.20761  1.0000
  I   I164      1.0  0.94463  0.61848  0.51278  1.0000
  I   I165      1.0  0.14658  0.56922  0.65041  1.0000
  I   I166      1.0  0.83559  0.05495  0.88354  1.0000
  I   I167      1.0  0.49090  0.38955  0.49056  1.0000
  I   I168      1.0  0.93846  0.26110  0.76323  1.0000
  I   I169      1.0  0.03244  0.97030  0.04515  1.0000
  I   I170      1.0  0.07796  0.93199  0.02548  1.0000
  I   I171      1.0  0.03718  0.75029  0.43901  1.0000
  I   I172      1.0  0.83573  0.59105  0.87923  1.0000
  I   I173      1.0  0.64333  0.77525  0.36532  1.0000
  I   I174      1.0  0.62234  0.45790  0.09458  1.0000
  I   I175      1.0  0.85888  0.99927  0.07678  1.0000
  I   I176      1.0  0.92647  0.39984  0.90769  1.0000
  I   I177      1.0  0.05367  0.79276  0.63599  1.0000
  I   I178      1.0  0.28820  0.89350  0.04990  1.0000
  I   I179      1.0  0.70899  0.32658  0.29763  1.0000
  I   I180      1.0  0.20796  0.97561  0.19566  1.0000
  I   I181      1.0  0.44335  0.10468  0.80355  1.0000
  I   I182      1.0  0.46522  0.45451  0.72049  1.0000
  I   I183      1.0  0.99840  0.88314  0.83467  1.0000
  I   I184      1.0  0.77748  0.11552  0.44149  1.0000
  I   I185      1.0  0.73338  0.12199  0.07081  1.0000
  I   I186      1.0  0.27928  0.69911  0.76272  1.0000
  I   I187      1.0  0.87048  0.19189  0.45470  1.0000
  I   I188      1.0  0.42682  0.43550  0.04895  1.0000
  I   I189      1.0  0.00802  0.84822  0.92558  1.0000
  I   I190      1.0  0.98362  0.64135  0.50092  1.0000
  I   I191      1.0  0.73304  0.99675  0.64012  1.0000
  I   I192      1.0  0.02633  0.96981  0.35487  1.0000
  I   I193      1.0  0.73818  0.43272  0.92177  1.0000
  I   I194      1.0  0.60208  0.77434  0.95857  1.0000
  I   I195      1.0  0.02705  0.96723  0.24606  1.0000
  I   I196      1.0  0.41734  0.81890  0.88287  1.0000
  I   I197      1.0  0.98358  0.70536  0.02425  1.0000
  I   I198      1.0  0.17609  0.02128  0.93536  1.0000
  I   I199      1.0  0.87897  0.39871  0.92055  1.0000
  I   I200      1.0  0.64660  0.34285  0.66539  1.0000
  I   I201      1.0  0.04806  0.05456  0.63894  1.0000
  I   I202      1.0  0.89541  0.83243  0.84281  1.0000
  I   I203      1.0  0.23071  0.59701  0.82435  1.0000
  I   I204      1.0  0.45417  0.06977  0.70865  1.0000
  I   I205      1.0  0.47331  0.62373  0.25275  1.0000
  I   I206      1.0  0.44243  0.76763  0.94346  1.0000
  I   I207      1.0  0.48747  0.45219  0.90464  1.0000
  I   I208      1.0  0.88603  0.78655  0.89189  1.0000
  I   I209      1.0  0.67894  0.96728  0.57100  1.0000
  I   I210      1.0  0.08135  0.76757  0.68815  1.0000
  I   I211      1.0  0.33538  0.93957  0.72390  1.0000
  I   I212      1.0  0.23680  0.46786  0.05445  1.0000
  I   I213      1.0  0.26992  0.55211  0.82584  1.0000
  I   I214      1.0  0.33164  0.32294  0.54776  1.0000
  I   I215      1.0  0.44530  0.93957  0.24653  1.0000
  I   I216      1.0  0.84234  0.54801  0.53841  1.0000
  I   I217      1.0  0.07753  0.93301  0.94004  1.0000
  I   I218      1.0  0.42314  0.78921  0.18152  1.0000
  I   I219      1.0  0.16680  0.93459  0.15307  1.0000
  I   I220      1.0  0.51128  0.48864  0.85499  1.0000
  I   I221      1.0  0.66386  0.77833  0.26236  1.0000
  I   I222      1.0  0.87549  0.58052  0.80756  1.0000
  I   I223      1.0  0.79529  0.02721  0.13050  1.0000
  I   I224      1.0  0.91850  0.34642  0.86756  1.0000
  I   I225      1.0  0.92939  0.06609  0.57013  1.0000
  I   I226      1.0  0.33103  0.68363  0.39436  1.0000
  I   I227      1.0  0.02712  0.29991  0.02204  1.0000
  I   I228      1.0  0.39310  0.68629  0.79793  1.0000
  I   I229      1.0  0.97414  0.76264  0.01533  1.0000
  I   I230      1.0  0.53835  0.66052  0.66318  1.0000
  I   I231      1.0  0.85421  0.20306  0.03057  1.0000
  I   I232      1.0  0.38422  0.79171  0.87983  1.0000
  I   I233      1.0  0.48130  0.70450  0.29210  1.0000
  I   I234      1.0  0.69375  0.03985  0.68053  1.0000
  I   I235      1.0  0.35511  0.69907  0.50041  1.0000
  I   I236      1.0  0.82058  0.51360  0.59951  1.0000
  I   I237      1.0  0.74739  0.37861  0.20407  1.0000
  I   I238      1.0  0.41485  0.79737  0.50222  1.0000
  I   I239      1.0  0.80268  0.03843  0.96015  1.0000
  I   I240      1.0  0.32994  0.02859  0.89780  1.0000
  I   I241      1.0  0.84392  0.15254  0.75513  1.0000
  I   I242      1.0  0.74789  0.29002  0.45371  1.0000
  I   I243      1.0  0.33142  0.31412  0.99278  1.0000
  I   I244      1.0  0.74486  0.10222  0.38491  1.0000
  I   I245      1.0  0.62723  0.48830  0.44771  1.0000
  I   I246      1.0  0.17821  0.99681  0.85283  1.0000
  I   I247      1.0  0.40584  0.47696  0.70917  1.0000
  I   I248      1.0  0.13456  0.53985  0.60133  1.0000
  I   I249      1.0  0.99416  0.08632  0.71809  1.0000
  I   I250      1.0  0.88554  0.86705  0.78799  1.0000
  I   I251      1.0  0.35607  0.80491  0.48759  1.0000
  I   I252      1.0  0.47272  0.01407  0.24048  1.0000
  I   I253      1.0  0.46734  0.56528  0.29252  1.0000
  I   I254      1.0  0.47438  0.78406  0.87522  1.0000
  I   I255      1.0  0.62012  0.27291  0.48459  1.0000
  I   I256      1.0  0.37101  0.26921  0.90453  1.0000
  I   I257      1.0  0.23209  0.00265  0.19602  1.0000
  I   I258      1.0  0.42439  0.44254  0.42471  1.0000
  I   I259      1.0  0.85155  0.81831  0.68329  1.0000
  I   I260      1.0  0.97714  0.60264  0.43582  1.0000
  I   I261      1.0  0.15763  0.55359  0.52728  1.0000
  I   I262      1.0  0.34607  0.33481  0.44695  1.0000
  I   I263      1.0  0.72597  0.51369  0.15255  1.0000
  I   I264      1.0  0.44674  0.65507  0.75625  1.0000
  I   I265      1.0  0.04582  0.94882  0.86642  1.0000
  I   I266      1.0  0.29159  0.56636  0.90785  1.0000
  I   I267      1.0  0.16543  0.92500  0.26586  1.0000
  I   I268      1.0  0.95699  0.18592  0.32333  1.0000
  I   I269      1.0  0.76502  0.46185  0.96645  1.0000
  I   I270      1.0  0.27720  0.27952  0.99354  1.0000
  I   I271      1.0  0.83083  0.97262  0.07895  1.0000
  I   I272      1.0  0.53130  0.33729  0.48096  1.0000
  I   I273      1.0  0.92233  0.11368  0.59013  1.0000
  I   I274      1.0  0.50912  0.73939  0.25547  1.0000
  I   I275      1.0  0.04572  0.79369  0.36702  1.0000
  I   I276      1.0  0.34577  0.72721  0.69275  1.0000
  I   I277      1.0  0.33017  0.89629  0.01340  1.0000
  I   I278      1.0  0.58714  0.64078  0.63434  1.0000
  I   I279      1.0  0.37740  0.44886  0.10131  1.0000
  I   I280      1.0  0.99699  0.35194  0.36096  1.0000
  I   I281      1.0  0.53407  0.68463  0.28040  1.0000
  I   I282      1.0  0.28673  0.69551  0.66225  1.0000
  I   I283      1.0  0.39507  0.69412  0.56249  1.0000
  I   I284      1.0  0.93889  0.29399  0.84482  1.0000
  I   I285      1.0  0.95716  0.86586  0.87696  1.0000
  I   I286      1.0  0.45911  0.81328  0.50614  1.0000
  I   I287      1.0  0.34505  0.89127  0.50926  1.0000
  I   I288      1.0  0.28789  0.11070  0.83870  1.0000
  I   I289      1.0  0.34224  0.71718  0.59447  1.0000
  I   I290      1.0  0.68669  0.02805  0.59103  1.0000
  I   I291      1.0  0.50954  0.93777  0.20041  1.0000
  I   I292      1.0  0.05494  0.34317  0.29366  1.0000
  I   I293      1.0  0.62041  0.55625  0.44955  1.0000
  I   I294      1.0  0.82545  0.95131  0.94526  1.0000
  I   I295      1.0  0.40109  0.50746  0.58156  1.0000
  I   I296      1.0  0.64899  0.32133  0.75809  1.0000
  I   I297      1.0  0.02082  0.08129  0.52344  1.0000
  I   I298      1.0  0.95054  0.74819  0.93998  1.0000
  I   I299      1.0  0.84073  0.87111  0.84811  1.0000
  I   I300      1.0  0.79786  0.57188  0.62352  1.0000
  I   I301      1.0  0.57500  0.26483  0.53608  1.0000
  I   I302      1.0  0.43837  0.62094  0.41139  1.0000
  I   I303      1.0  0.41562  0.22162  0.84302  1.0000
  I   I304      1.0  0.40520  0.45218  0.53467  1.0000
  I   I305      1.0  0.84086  0.83289  0.89445  1.0000
  I   I306      1.0  0.47881  0.48919  0.68706  1.0000
  I   I307      1.0  0.25554  0.92736  0.19696  1.0000
  I   I308      1.0  0.18844  0.48852  0.89458  1.0000
  I   I309      1.0  0.25748  0.70927  0.43589  1.0000
  I   I310      1.0  0.41371  0.84451  0.16776  1.0000
  I   I311      1.0  0.73874  0.46362  0.12688  1.0000
  I   I312      1.0  0.06293  0.64034  0.41493  1.0000
  I   I313      1.0  0.12382  0.96406  0.20335  1.0000
  I   I314      1.0  0.07476  0.98230  0.87154  1.0000
  I   I315      1.0  0.36931  0.81908  0.17660  1.0000
  I   I316      1.0  0.89139  0.54832  0.90214  1.0000
  I   I317      1.0  0.95273  0.14829  0.27698  1.0000
  I   I318      1.0  0.63591  0.74789  0.28487  1.0000
  I   I319      1.0  0.06281  0.83302  0.63912  1.0000
  I   I320      1.0  0.43223  0.78155  0.81773  1.0000
  I   I321      1.0  0.01756  0.70111  0.85427  1.0000
  I   I322      1.0  0.55266  0.69454  0.92144  1.0000
  I   I323      1.0  0.76207  0.30561  0.24978  1.0000
  I   I324      1.0  0.40233  0.67870  0.68499  1.0000
  I   I325      1.0  0.24531  0.96735  0.13820  1.0000
  I   I326      1.0  0.44250  0.49349  0.77391  1.0000
  I   I327      1.0  0.81813  0.27727  0.23254  1.0000
  I   I328      1.0  0.80935  0.19997  0.01972  1.0000
  I   I329      1.0  0.74081  0.10328  0.17881  1.0000
  I   I330      1.0  0.72661  0.97219  0.55671  1.0000
  I   I331      1.0  0.00327  0.81834  0.86840  1.0000
  I   I332      1.0  0.71031  0.98569  0.71759  1.0000
  I   I333      1.0  0.54732  0.73670  0.84275  1.0000
  I   I334      1.0  0.28975  0.03683  0.96972  1.0000
  I   I335      1.0  0.38086  0.29768  0.97094  1.0000
  I   I336      1.0  0.82914  0.05483  0.00074  1.0000
  I   I337      1.0  0.41848  0.87281  0.10709  1.0000
  I   I338      1.0  0.23072  0.45809  0.94507  1.0000
  I   I339      1.0  0.40305  0.96002  0.28234  1.0000
  I   I340      1.0  0.91942  0.65687  0.31761  1.0000
  I   I341      1.0  0.89798  0.28915  0.83172  1.0000
  I   I342      1.0  0.84359  0.90489  0.97519  1.0000
  I   I343      1.0  0.04310  0.72583  0.79412  1.0000
  I   I344      1.0  0.69897  0.30390  0.71781  1.0000
  I   I345      1.0  0.02542  0.10751  0.63805  1.0000
  I   I346      1.0  0.35835  0.96306  0.78149  1.0000
  I   I347      1.0  0.86032  0.84905  0.73388  1.0000
  I   I348      1.0  0.52391  0.03865  0.28603  1.0000
  I   I349      1.0  0.63302  0.24118  0.56907  1.0000
  I   I350      1.0  0.46997  0.60827  0.33207  1.0000
  I   I351      1.0  0.45285  0.74138  0.86881  1.0000
  I   I352      1.0  0.36426  0.45898  0.51028  1.0000
  I   I353      1.0  0.39191  0.25689  0.78502  1.0000
  I   I354      1.0  0.43576  0.48275  0.64516  1.0000
  I   I355      1.0  0.53078  0.97956  0.21257  1.0000
  I   I356      1.0  0.34632  0.33684  0.90854  1.0000
  I   I357      1.0  0.29472  0.56929  0.72413  1.0000
  I   I358      1.0  0.89825  0.32429  0.54385  1.0000
  I   I359      1.0  0.78105  0.45972  0.18828  1.0000
  I   I360      1.0  0.36767  0.91830  0.44589  1.0000
  I   I361      1.0  0.99918  0.79962  0.38723  1.0000
  I   I362      1.0  0.02601  0.94861  0.96723  1.0000
  I   I363      1.0  0.28774  0.58707  0.82849  1.0000
  I   I364      1.0  0.65758  0.43120  0.16400  1.0000
  I   I365      1.0  0.64791  0.50350  0.50872  1.0000
  I   I366      1.0  0.61166  0.80053  0.24724  1.0000
  I   I367      1.0  0.11478  0.78863  0.68493  1.0000
  I   I368      1.0  0.92860  0.68391  0.22847  1.0000
  I   I369      1.0  0.47044  0.94639  0.15658  1.0000
  I   I370      1.0  0.06556  0.06640  0.56647  1.0000
  I   I371      1.0  0.81946  0.26765  0.32835  1.0000
  I   I372      1.0  0.94264  0.24078  0.87842  1.0000
  I   I373      1.0  0.28320  0.95915  0.24754  1.0000
  I   I374      1.0  0.55209  0.70008  0.71426  1.0000
  I   I375      1.0  0.76007  0.28489  0.33481  1.0000
  I   I376      1.0  0.77325  0.48134  0.08910  1.0000
  I   I377      1.0  0.78535  0.10798  0.11342  1.0000
  I   I378      1.0  0.33612  0.66839  0.71646  1.0000
  I   I379      1.0  0.71152  0.41878  0.28527  1.0000
  I   I380      1.0  0.88087  0.21425  0.52127  1.0000
  I   I381      1.0  0.55082  0.96023  0.28998  1.0000
  I   I382      1.0  0.31501  0.06706  0.81112  1.0000
  I   I383      1.0  0.33631  0.75573  0.53354  1.0000
  I   I384      1.0  0.33631  0.89055  0.39908  1.0000
