data_image0
_chemical_formula_structural       Ti96I384
_chemical_formula_sum              "Ti96 I384"
_cell_length_a       53.5916
_cell_length_b       53.6771
_cell_length_c       25.9458
_cell_angle_alpha    88.7757
_cell_angle_beta     88.7757
_cell_angle_gamma    62.1586

_space_group_name_H-M_alt    "P 1"
_space_group_IT_number       1

loop_
  _space_group_symop_operation_xyz
  'x, y, z'

loop_
  _atom_site_type_symbol
  _atom_site_label
  _atom_site_symmetry_multiplicity
  _atom_site_fract_x
  _atom_site_fract_y
  _atom_site_fract_z
  _atom_site_occupancy
  Ti  Ti1       1.0  0.62461  0.69587  0.34709  1.0000
  Ti  Ti2       1.0  0.93031  0.11176  0.32076  1.0000
  Ti  Ti3       1.0  0.49244  0.83721  0.25742  1.0000
  Ti  Ti4       1.0  0.19873  0.01187  0.59459  1.0000
  Ti  Ti5       1.0  0.11454  0.22583  0.34499  1.0000
  Ti  Ti6       1.0  0.04762  0.28034  0.89160  1.0000
  Ti  Ti7       1.0  0.06930  0.85018  0.24349  1.0000
  Ti  Ti8       1.0  0.94057  0.08361  0.65174  1.0000
  Ti  Ti9       1.0  0.93209  0.84746  0.51504  1.0000
  Ti  Ti10      1.0  0.30441  0.82865  0.95980  1.0000
  Ti  Ti11      1.0  0.01850  0.66160  0.82413  1.0000
  Ti  Ti12      1.0  0.93520  0.61136  0.97535  1.0000
  Ti  Ti13      1.0  0.36992  0.23250  0.34418  1.0000
  Ti  Ti14      1.0  0.33201  0.15074  0.51773  1.0000
  Ti  Ti15      1.0  0.36231  0.07382  0.09287  1.0000
  Ti  Ti16      1.0  0.15048  0.71776  0.98508  1.0000
  Ti  Ti17      1.0  0.20119  0.65578  0.24456  1.0000
  Ti  Ti18      1.0  0.21945  0.44613  0.40957  1.0000
  Ti  Ti19      1.0  0.51458  0.66690  0.69094  1.0000
  Ti  Ti20      1.0  0.69033  0.87089  0.82305  1.0000
  Ti  Ti21      1.0  0.21426  0.64882  0.69159  1.0000
  Ti  Ti22      1.0  0.46036  0.89630  0.67963  1.0000
  Ti  Ti23      1.0  0.78690  0.86011  0.20665  1.0000
  Ti  Ti24      1.0  0.49583  0.01045  0.71469  1.0000
  Ti  Ti25      1.0  0.27659  0.24216  0.90806  1.0000
  Ti  Ti26      1.0  0.38203  0.30826  0.97331  1.0000
  Ti  Ti27      1.0  0.39246  0.59257  0.70813  1.0000
  Ti  Ti28      1.0  0.46095  0.64166  0.05676  1.0000
  Ti  Ti29      1.0  0.67225  0.38822  0.93637  1.0000
  Ti  Ti30      1.0  0.75522  0.47178  0.83475  1.0000
  Ti  Ti31      1.0  0.91340  0.44267  0.26267  1.0000
  Ti  Ti32      1.0  0.80645  0.31780  0.65637  1.0000
  Ti  Ti33      1.0  0.94858  0.45186  0.93812  1.0000
  Ti  Ti34      1.0  0.93626  0.88598  0.95595  1.0000
  Ti  Ti35      1.0  0.77098  0.64705  0.01883  1.0000
  Ti  Ti36      1.0  0.79607  0.66313  0.65795  1.0000
  Ti  Ti37      1.0  0.63576  0.24321  0.19544  1.0000
  Ti  Ti38      1.0  0.55864  0.30695  0.44985  1.0000
  Ti  Ti39      1.0  0.51577  0.35746  0.91516  1.0000
  Ti  Ti40      1.0  0.05473  0.03128  0.88556  1.0000
  Ti  Ti41      1.0  0.72708  0.20544  0.63135  1.0000
  Ti  Ti42      1.0  0.15678  0.89199  0.40496  1.0000
  Ti  Ti43      1.0  0.80260  0.29674  0.09525  1.0000
  Ti  Ti44      1.0  0.00932  0.42522  0.49701  1.0000
  Ti  Ti45      1.0  0.00802  0.55007  0.61112  1.0000
  Ti  Ti46      1.0  0.65259  0.99718  0.57402  1.0000
  Ti  Ti47      1.0  0.58284  0.03590  0.11968  1.0000
  Ti  Ti48      1.0  0.62519  0.14388  0.82161  1.0000
  Ti  Ti49      1.0  0.59180  0.75144  0.37412  1.0000
  Ti  Ti50      1.0  0.88682  0.06996  0.34209  1.0000
  Ti  Ti51      1.0  0.99273  0.11676  0.24913  1.0000
  Ti  Ti52      1.0  0.27741  0.95894  0.57703  1.0000
  Ti  Ti53      1.0  0.08625  0.25452  0.45436  1.0000
  Ti  Ti54      1.0  0.03886  0.23492  0.75394  1.0000
  Ti  Ti55      1.0  0.99188  0.90124  0.24423  1.0000
  Ti  Ti56      1.0  0.00352  0.07853  0.63023  1.0000
  Ti  Ti57      1.0  0.93636  0.87488  0.65999  1.0000
  Ti  Ti58      1.0  0.30515  0.87918  0.10197  1.0000
  Ti  Ti59      1.0  0.25893  0.86193  0.83497  1.0000
  Ti  Ti60      1.0  0.94397  0.66483  0.86926  1.0000
  Ti  Ti61      1.0  0.29427  0.13474  0.12827  1.0000
  Ti  Ti62      1.0  0.42701  0.21510  0.21881  1.0000
  Ti  Ti63      1.0  0.27526  0.13392  0.50803  1.0000
  Ti  Ti64      1.0  0.20450  0.40250  0.29751  1.0000
  Ti  Ti65      1.0  0.18184  0.68710  0.11236  1.0000
  Ti  Ti66      1.0  0.12516  0.69815  0.46826  1.0000
  Ti  Ti67      1.0  0.59917  0.66756  0.66532  1.0000
  Ti  Ti68      1.0  0.76660  0.81353  0.81574  1.0000
  Ti  Ti69      1.0  0.17677  0.60226  0.69915  1.0000
  Ti  Ti70      1.0  0.47510  0.95232  0.63848  1.0000
  Ti  Ti71      1.0  0.81787  0.80448  0.10389  1.0000
  Ti  Ti72      1.0  0.74438  0.87255  0.35578  1.0000
  Ti  Ti73      1.0  0.41509  0.52651  0.71005  1.0000
  Ti  Ti74      1.0  0.32514  0.28126  0.87720  1.0000
  Ti  Ti75      1.0  0.36496  0.39486  0.97915  1.0000
  Ti  Ti76      1.0  0.75550  0.53820  0.76634  1.0000
  Ti  Ti77      1.0  0.52914  0.63892  0.06899  1.0000
  Ti  Ti78      1.0  0.68544  0.45169  0.89191  1.0000
  Ti  Ti79      1.0  0.92937  0.41789  0.86587  1.0000
  Ti  Ti80      1.0  0.91856  0.36214  0.25794  1.0000
  Ti  Ti81      1.0  0.87564  0.32833  0.73263  1.0000
  Ti  Ti82      1.0  0.92443  0.96871  0.99096  1.0000
  Ti  Ti83      1.0  0.69525  0.65681  0.03471  1.0000
  Ti  Ti84      1.0  0.83317  0.68086  0.51723  1.0000
  Ti  Ti85      1.0  0.66858  0.14863  0.16151  1.0000
  Ti  Ti86      1.0  0.54984  0.27448  0.28821  1.0000
  Ti  Ti87      1.0  0.52725  0.37739  0.05468  1.0000
  Ti  Ti88      1.0  0.08841  0.97712  0.96300  1.0000
  Ti  Ti89      1.0  0.72135  0.19669  0.50949  1.0000
  Ti  Ti90      1.0  0.20717  0.81788  0.30954  1.0000
  Ti  Ti91      1.0  0.08962  0.50072  0.66350  1.0000
  Ti  Ti92      1.0  0.87091  0.25837  0.05007  1.0000
  Ti  Ti93      1.0  0.97705  0.52289  0.47557  1.0000
  Ti  Ti94      1.0  0.57001  0.14177  0.74316  1.0000
  Ti  Ti95      1.0  0.71120  0.99429  0.61055  1.0000
  Ti  Ti96      1.0  0.55212  0.04376  0.94718  1.0000
  I   I1        1.0  0.89444  0.01875  0.36404  1.0000
  I   I2        1.0  0.93612  0.16249  0.33412  1.0000
  I   I3        1.0  0.61725  0.78196  0.37308  1.0000
  I   I4        1.0  0.10780  0.28224  0.49611  1.0000
  I   I5        1.0  0.08663  0.21521  0.69569  1.0000
  I   I6        1.0  0.09452  0.26907  0.94667  1.0000
  I   I7        1.0  0.99041  0.04209  0.58785  1.0000
  I   I8        1.0  0.90318  0.10297  0.57639  1.0000
  I   I9        1.0  0.92315  0.88837  0.45720  1.0000
  I   I10       1.0  0.29203  0.79772  0.89949  1.0000
  I   I11       1.0  0.96465  0.70668  0.86360  1.0000
  I   I12       1.0  0.33823  0.90405  0.13418  1.0000
  I   I13       1.0  0.42050  0.18895  0.30349  1.0000
  I   I14       1.0  0.32944  0.09892  0.48598  1.0000
  I   I15       1.0  0.31085  0.11006  0.02874  1.0000
  I   I16       1.0  0.13251  0.68874  0.06746  1.0000
  I   I17       1.0  0.16527  0.70464  0.50619  1.0000
  I   I18       1.0  0.17920  0.46274  0.32266  1.0000
  I   I19       1.0  0.71134  0.81532  0.81133  1.0000
  I   I20       1.0  0.17051  0.63853  0.77190  1.0000
  I   I21       1.0  0.24832  0.60745  0.75946  1.0000
  I   I22       1.0  0.85820  0.74884  0.11870  1.0000
  I   I23       1.0  0.80243  0.80443  0.21681  1.0000
  I   I24       1.0  0.52412  0.96337  0.65975  1.0000
  I   I25       1.0  0.26508  0.30114  0.87895  1.0000
  I   I26       1.0  0.37546  0.34935  0.90454  1.0000
  I   I27       1.0  0.41811  0.56108  0.61276  1.0000
  I   I28       1.0  0.51133  0.60356  0.12079  1.0000
  I   I29       1.0  0.68853  0.42995  0.99107  1.0000
  I   I30       1.0  0.71323  0.53013  0.80715  1.0000
  I   I31       1.0  0.95989  0.38600  0.27326  1.0000
  I   I32       1.0  0.81492  0.35365  0.73110  1.0000
  I   I33       1.0  0.98184  0.41821  0.84171  1.0000
  I   I34       1.0  0.74240  0.63695  0.09758  1.0000
  I   I35       1.0  0.85705  0.64261  0.60251  1.0000
  I   I36       1.0  0.96407  0.98274  0.97958  1.0000
  I   I37       1.0  0.60870  0.23346  0.28084  1.0000
  I   I38       1.0  0.52757  0.42434  0.03109  1.0000
  I   I39       1.0  0.67092  0.11975  0.24683  1.0000
  I   I40       1.0  0.74583  0.21665  0.44819  1.0000
  I   I41       1.0  0.19545  0.79307  0.23486  1.0000
  I   I42       1.0  0.10586  0.97428  0.05724  1.0000
  I   I43       1.0  0.86276  0.21903  0.08671  1.0000
  I   I44       1.0  0.96258  0.47623  0.48171  1.0000
  I   I45       1.0  0.96348  0.59295  0.63311  1.0000
  I   I46       1.0  0.67433  0.00189  0.48179  1.0000
  I   I47       1.0  0.59870  0.98291  0.14196  1.0000
  I   I48       1.0  0.63958  0.18300  0.80850  1.0000
  I   I49       1.0  0.56643  0.71162  0.37765  1.0000
  I   I50       1.0  0.87365  0.13264  0.30058  1.0000
  I   I51       1.0  0.02537  0.07813  0.17954  1.0000
  I   I52       1.0  0.28359  0.98233  0.65748  1.0000
  I   I53       1.0  0.06532  0.22530  0.37614  1.0000
  I   I54       1.0  0.01696  0.19900  0.75713  1.0000
  I   I55       1.0  0.99845  0.92124  0.15015  1.0000
  I   I56       1.0  0.03197  0.09445  0.55580  1.0000
  I   I57       1.0  0.97147  0.86816  0.56677  1.0000
  I   I58       1.0  0.31237  0.85426  0.87631  1.0000
  I   I59       1.0  0.29615  0.82723  0.76848  1.0000
  I   I60       1.0  0.92314  0.62860  0.87923  1.0000
  I   I61       1.0  0.31689  0.24406  0.34813  1.0000
  I   I62       1.0  0.47227  0.21095  0.25842  1.0000
  I   I63       1.0  0.38326  0.12651  0.47284  1.0000
  I   I64       1.0  0.17813  0.73847  0.93359  1.0000
  I   I65       1.0  0.23236  0.67102  0.15347  1.0000
  I   I66       1.0  0.11411  0.71205  0.36982  1.0000
  I   I67       1.0  0.58702  0.71474  0.60400  1.0000
  I   I68       1.0  0.64054  0.87746  0.83253  1.0000
  I   I69       1.0  0.16815  0.65617  0.63363  1.0000
  I   I70       1.0  0.42442  0.95421  0.65132  1.0000
  I   I71       1.0  0.76156  0.85726  0.11231  1.0000
  I   I72       1.0  0.74402  0.90767  0.43223  1.0000
  I   I73       1.0  0.41552  0.62378  0.70988  1.0000
  I   I74       1.0  0.38037  0.27438  0.88694  1.0000
  I   I75       1.0  0.34188  0.43432  0.04122  1.0000
  I   I76       1.0  0.50514  0.62853  0.98307  1.0000
  I   I77       1.0  0.57880  0.61740  0.03116  1.0000
  I   I78       1.0  0.71814  0.45074  0.79916  1.0000
  I   I79       1.0  0.92469  0.37465  0.84575  1.0000
  I   I80       1.0  0.87396  0.35532  0.25174  1.0000
  I   I81       1.0  0.86685  0.29865  0.65116  1.0000
  I   I82       1.0  0.94362  0.85310  0.88112  1.0000
  I   I83       1.0  0.78009  0.68272  0.07226  1.0000
  I   I84       1.0  0.87742  0.68912  0.49869  1.0000
  I   I85       1.0  0.62595  0.20375  0.12612  1.0000
  I   I86       1.0  0.50578  0.32404  0.28177  1.0000
  I   I87       1.0  0.49911  0.38357  0.14270  1.0000
  I   I88       1.0  0.07614  0.01489  0.79766  1.0000
  I   I89       1.0  0.77783  0.16253  0.65402  1.0000
  I   I90       1.0  0.15565  0.89955  0.50208  1.0000
  I   I91       1.0  0.11037  0.44520  0.68460  1.0000
  I   I92       1.0  0.83517  0.28167  0.17395  1.0000
  I   I93       1.0  0.01083  0.54682  0.50415  1.0000
  I   I94       1.0  0.53328  0.12439  0.76586  1.0000
  I   I95       1.0  0.72652  0.99869  0.70978  1.0000
  I   I96       1.0  0.51623  0.09344  0.90357  1.0000
  I   I97       1.0  0.48600  0.86370  0.34718  1.0000
  I   I98       1.0  0.62351  0.66615  0.26852  1.0000
  I   I99       1.0  0.94242  0.11213  0.20681  1.0000
  I   I100      1.0  0.29696  0.90490  0.56328  1.0000
  I   I101      1.0  0.19838  0.05875  0.57228  1.0000
  I   I102      1.0  0.14828  0.17609  0.29287  1.0000
  I   I103      1.0  0.95120  0.89197  0.24185  1.0000
  I   I104      1.0  0.09755  0.82699  0.32531  1.0000
  I   I105      1.0  0.98275  0.85889  0.72053  1.0000
  I   I106      1.0  0.89390  0.62107  0.04216  1.0000
  I   I107      1.0  0.24867  0.86428  0.95227  1.0000
  I   I108      1.0  0.96191  0.64854  0.77192  1.0000
  I   I109      1.0  0.25071  0.12443  0.12564  1.0000
  I   I110      1.0  0.39250  0.20523  0.43690  1.0000
  I   I111      1.0  0.32920  0.19596  0.56236  1.0000
  I   I112      1.0  0.22228  0.39702  0.20211  1.0000
  I   I113      1.0  0.20566  0.66751  0.02140  1.0000
  I   I114      1.0  0.19627  0.68918  0.32196  1.0000
  I   I115      1.0  0.57021  0.64018  0.62997  1.0000
  I   I116      1.0  0.63377  0.66845  0.73943  1.0000
  I   I117      1.0  0.71971  0.86164  0.90793  1.0000
  I   I118      1.0  0.44982  0.99717  0.70542  1.0000
  I   I119      1.0  0.48654  0.84210  0.70735  1.0000
  I   I120      1.0  0.73293  0.88199  0.24702  1.0000
  I   I121      1.0  0.38427  0.58685  0.81345  1.0000
  I   I122      1.0  0.31852  0.24585  0.96651  1.0000
  I   I123      1.0  0.43487  0.29647  0.99005  1.0000
  I   I124      1.0  0.77694  0.48283  0.74854  1.0000
  I   I125      1.0  0.44350  0.60381  0.07049  1.0000
  I   I126      1.0  0.71494  0.39592  0.86154  1.0000
  I   I127      1.0  0.95679  0.39592  0.97176  1.0000
  I   I128      1.0  0.89264  0.40749  0.32414  1.0000
  I   I129      1.0  0.76547  0.31642  0.70975  1.0000
  I   I130      1.0  0.80517  0.70648  0.69140  1.0000
  I   I131      1.0  0.96085  0.91939  0.91561  1.0000
  I   I132      1.0  0.66410  0.64395  0.10006  1.0000
  I   I133      1.0  0.58014  0.34556  0.07962  1.0000
  I   I134      1.0  0.57083  0.28922  0.20178  1.0000
  I   I135      1.0  0.50549  0.34340  0.44251  1.0000
  I   I136      1.0  0.10643  0.93396  0.38940  1.0000
  I   I137      1.0  0.04153  0.02532  0.99176  1.0000
  I   I138      1.0  0.75226  0.23565  0.59721  1.0000
  I   I139      1.0  0.04023  0.57353  0.61091  1.0000
  I   I140      1.0  0.90961  0.25902  0.10413  1.0000
  I   I141      1.0  0.02368  0.47216  0.46523  1.0000
  I   I142      1.0  0.67253  0.10408  0.83332  1.0000
  I   I143      1.0  0.70626  0.94950  0.59928  1.0000
  I   I144      1.0  0.59172  0.05235  0.00982  1.0000
  I   I145      1.0  0.56491  0.78082  0.45994  1.0000
  I   I146      1.0  0.92001  0.10779  0.41589  1.0000
  I   I147      1.0  0.52200  0.85109  0.19982  1.0000
  I   I148      1.0  0.31623  0.96418  0.52180  1.0000
  I   I149      1.0  0.04735  0.29961  0.40597  1.0000
  I   I150      1.0  0.00595  0.27096  0.82956  1.0000
  I   I151      1.0  0.02517  0.84480  0.18558  1.0000
  I   I152      1.0  0.91301  0.11508  0.72832  1.0000
  I   I153      1.0  0.89334  0.88275  0.60217  1.0000
  I   I154      1.0  0.35861  0.78878  0.96383  1.0000
  I   I155      1.0  0.03870  0.69053  0.87012  1.0000
  I   I156      1.0  0.89500  0.70462  0.83896  1.0000
  I   I157      1.0  0.26700  0.18133  0.07504  1.0000
  I   I158      1.0  0.28862  0.17046  0.44903  1.0000
  I   I159      1.0  0.40850  0.07197  0.05583  1.0000
  I   I160      1.0  0.25946  0.45030  0.35856  1.0000
  I   I161      1.0  0.19194  0.63450  0.15575  1.0000
  I   I162      1.0  0.24686  0.40981  0.48897  1.0000
  I   I163      1.0  0.54215  0.69943  0.70662  1.0000
  I   I164      1.0  0.78680  0.78807  0.72555  1.0000
  I   I165      1.0  0.24883  0.64077  0.61549  1.0000
  I   I166      1.0  0.49617  0.91735  0.72297  1.0000
  I   I167      1.0  0.84014  0.83776  0.14651  1.0000
  I   I168      1.0  0.45739  0.05829  0.67320  1.0000
  I   I169      1.0  0.23435  0.26349  0.97393  1.0000
  I   I170      1.0  0.31807  0.32610  0.94969  1.0000
  I   I171      1.0  0.44683  0.55152  0.74722  1.0000
  I   I172      1.0  0.80823  0.53309  0.74961  1.0000
  I   I173      1.0  0.71505  0.33753  0.94707  1.0000
  I   I174      1.0  0.72268  0.46534  0.92856  1.0000
  I   I175      1.0  0.94128  0.45473  0.19046  1.0000
  I   I176      1.0  0.87136  0.37823  0.71832  1.0000
  I   I177      1.0  0.99324  0.45296  0.97142  1.0000
  I   I178      1.0  0.91942  0.92787  0.05106  1.0000
  I   I179      1.0  0.73907  0.68681  0.94870  1.0000
  I   I180      1.0  0.74308  0.67862  0.68499  1.0000
  I   I181      1.0  0.68188  0.18272  0.22579  1.0000
  I   I182      1.0  0.57134  0.32880  0.35591  1.0000
  I   I183      1.0  0.48196  0.37124  0.84083  1.0000
  I   I184      1.0  0.03053  0.08406  0.87782  1.0000
  I   I185      1.0  0.72432  0.21673  0.72983  1.0000
  I   I186      1.0  0.25857  0.77468  0.33864  1.0000
  I   I187      1.0  0.81809  0.27091  0.99271  1.0000
  I   I188      1.0  0.05842  0.40330  0.54788  1.0000
  I   I189      1.0  0.98154  0.51448  0.59015  1.0000
  I   I190      1.0  0.61187  0.04812  0.59138  1.0000
  I   I191      1.0  0.55637  0.06158  0.20549  1.0000
  I   I192      1.0  0.60051  0.10697  0.82606  1.0000
  I   I193      1.0  0.67689  0.64894  0.36045  1.0000
  I   I194      1.0  0.93965  0.05924  0.29862  1.0000
  I   I195      1.0  0.46906  0.80420  0.27388  1.0000
  I   I196      1.0  0.17334  0.02519  0.68853  1.0000
  I   I197      1.0  0.12886  0.19958  0.44566  1.0000
  I   I198      1.0  0.02880  0.27512  0.98628  1.0000
  I   I199      1.0  0.06835  0.90231  0.24397  1.0000
  I   I200      1.0  0.05779  0.03842  0.64132  1.0000
  I   I201      1.0  0.89004  0.83686  0.50066  1.0000
  I   I202      1.0  0.31742  0.87397  0.99788  1.0000
  I   I203      1.0  0.06325  0.61266  0.81132  1.0000
  I   I204      1.0  0.97623  0.60568  0.05222  1.0000
  I   I205      1.0  0.37433  0.27802  0.37210  1.0000
  I   I206      1.0  0.31078  0.14034  0.61035  1.0000
  I   I207      1.0  0.37907  0.04464  0.17814  1.0000
  I   I208      1.0  0.14053  0.68301  0.92913  1.0000
  I   I209      1.0  0.24974  0.60884  0.26219  1.0000
  I   I210      1.0  0.19887  0.49020  0.45780  1.0000
  I   I211      1.0  0.50076  0.65670  0.59762  1.0000
  I   I212      1.0  0.73327  0.86425  0.74957  1.0000
  I   I213      1.0  0.22372  0.58935  0.63973  1.0000
  I   I214      1.0  0.43977  0.88802  0.58841  1.0000
  I   I215      1.0  0.78139  0.91254  0.17972  1.0000
  I   I216      1.0  0.48706  0.01622  0.81753  1.0000
  I   I217      1.0  0.26002  0.23698  0.81969  1.0000
  I   I218      1.0  0.37533  0.27314  0.03858  1.0000
  I   I219      1.0  0.46734  0.48739  0.65750  1.0000
  I   I220      1.0  0.42120  0.68204  0.00015  1.0000
  I   I221      1.0  0.63015  0.39771  0.99685  1.0000
  I   I222      1.0  0.79883  0.42201  0.83363  1.0000
  I   I223      1.0  0.86770  0.45544  0.21946  1.0000
  I   I224      1.0  0.82431  0.27164  0.59690  1.0000
  I   I225      1.0  0.92893  0.49062  0.86635  1.0000
  I   I226      1.0  0.89607  0.87567  0.99027  1.0000
  I   I227      1.0  0.81603  0.61284  0.97007  1.0000
  I   I228      1.0  0.78452  0.67511  0.56025  1.0000
  I   I229      1.0  0.63264  0.26501  0.10628  1.0000
  I   I230      1.0  0.58588  0.33537  0.48225  1.0000
  I   I231      1.0  0.48277  0.41101  0.96252  1.0000
  I   I232      1.0  0.10501  0.02150  0.93968  1.0000
  I   I233      1.0  0.68532  0.18920  0.45276  1.0000
  I   I234      1.0  0.22806  0.84473  0.25837  1.0000
  I   I235      1.0  0.76949  0.27594  0.12500  1.0000
  I   I236      1.0  0.98529  0.40625  0.56882  1.0000
  I   I237      1.0  0.06001  0.49183  0.58032  1.0000
  I   I238      1.0  0.61783  0.97455  0.56931  1.0000
  I   I239      1.0  0.62974  0.03917  0.12644  1.0000
  I   I240      1.0  0.61096  0.15232  0.92048  1.0000
  I   I241      1.0  0.63376  0.71463  0.44398  1.0000
  I   I242      1.0  0.99024  0.08295  0.33552  1.0000
  I   I243      1.0  0.44375  0.87475  0.22265  1.0000
  I   I244      1.0  0.22914  0.95441  0.63725  1.0000
  I   I245      1.0  0.12098  0.26916  0.34196  1.0000
  I   I246      1.0  0.02548  0.33492  0.89672  1.0000
  I   I247      1.0  0.10722  0.81894  0.18098  1.0000
  I   I248      1.0  0.95614  0.12359  0.60198  1.0000
  I   I249      1.0  0.97781  0.80428  0.49254  1.0000
  I   I250      1.0  0.29476  0.83355  0.07756  1.0000
  I   I251      1.0  0.01418  0.66988  0.72309  1.0000
  I   I252      1.0  0.94920  0.55962  0.95085  1.0000
  I   I253      1.0  0.36314  0.24704  0.24145  1.0000
  I   I254      1.0  0.27812  0.08759  0.54791  1.0000
  I   I255      1.0  0.35939  0.03775  0.03036  1.0000
  I   I256      1.0  0.10344  0.76687  0.97795  1.0000
  I   I257      1.0  0.17587  0.62908  0.28651  1.0000
  I   I258      1.0  0.19206  0.40896  0.41311  1.0000
  I   I259      1.0  0.51772  0.62395  0.73381  1.0000
  I   I260      1.0  0.81072  0.82017  0.84751  1.0000
  I   I261      1.0  0.20002  0.69286  0.74324  1.0000
  I   I262      1.0  0.41923  0.90384  0.73980  1.0000
  I   I263      1.0  0.79029  0.87270  0.31499  1.0000
  I   I264      1.0  0.53381  0.02757  0.71184  1.0000
  I   I265      1.0  0.30056  0.18866  0.91921  1.0000
  I   I266      1.0  0.35995  0.35365  0.04045  1.0000
  I   I267      1.0  0.34382  0.62067  0.66015  1.0000
  I   I268      1.0  0.45359  0.66788  0.14112  1.0000
  I   I269      1.0  0.64703  0.37017  0.86351  1.0000
  I   I270      1.0  0.77322  0.48998  0.91283  1.0000
  I   I271      1.0  0.89631  0.48238  0.33104  1.0000
  I   I272      1.0  0.78309  0.35720  0.59104  1.0000
  I   I273      1.0  0.91240  0.47661  0.00891  1.0000
  I   I274      1.0  0.98023  0.85439  0.01956  1.0000
  I   I275      1.0  0.68549  0.70662  0.05391  1.0000
  I   I276      1.0  0.80572  0.61312  0.67344  1.0000
  I   I277      1.0  0.65158  0.27172  0.25473  1.0000
  I   I278      1.0  0.55364  0.27869  0.52738  1.0000
  I   I279      1.0  0.54550  0.30430  0.89168  1.0000
  I   I280      1.0  0.02419  0.00301  0.88380  1.0000
  I   I281      1.0  0.68743  0.24449  0.56282  1.0000
  I   I282      1.0  0.18930  0.91310  0.39278  1.0000
  I   I283      1.0  0.83235  0.32162  0.04585  1.0000
  I   I284      1.0  0.00751  0.39536  0.42079  1.0000
  I   I285      1.0  0.03509  0.52604  0.70709  1.0000
  I   I286      1.0  0.65891  0.00501  0.68562  1.0000
  I   I287      1.0  0.53625  0.05398  0.05825  1.0000
  I   I288      1.0  0.56065  0.18268  0.81941  1.0000
  I   I289      1.0  0.64880  0.71571  0.27672  1.0000
  I   I290      1.0  0.85137  0.09376  0.41943  1.0000
  I   I291      1.0  0.03374  0.12389  0.28310  1.0000
  I   I292      1.0  0.16060  0.00607  0.55074  1.0000
  I   I293      1.0  0.05912  0.25370  0.53839  1.0000
  I   I294      1.0  0.00897  0.27439  0.68240  1.0000
  I   I295      1.0  0.02316  0.86500  0.32009  1.0000
  I   I296      1.0  0.99530  0.08845  0.73842  1.0000
  I   I297      1.0  0.91774  0.92576  0.69213  1.0000
  I   I298      1.0  0.25805  0.92094  0.10772  1.0000
  I   I299      1.0  0.23811  0.91311  0.81389  1.0000
  I   I300      1.0  0.92356  0.66988  0.97180  1.0000
  I   I301      1.0  0.34779  0.12706  0.15693  1.0000
  I   I302      1.0  0.42264  0.25964  0.16651  1.0000
  I   I303      1.0  0.23333  0.16539  0.57038  1.0000
  I   I304      1.0  0.21680  0.35111  0.33230  1.0000
  I   I305      1.0  0.14583  0.70415  0.19907  1.0000
  I   I306      1.0  0.07938  0.73610  0.50910  1.0000
  I   I307      1.0  0.46376  0.70751  0.71607  1.0000
  I   I308      1.0  0.67099  0.92622  0.79267  1.0000
  I   I309      1.0  0.12950  0.61179  0.66243  1.0000
  I   I310      1.0  0.49589  0.90300  0.59151  1.0000
  I   I311      1.0  0.78500  0.78647  0.06636  1.0000
  I   I312      1.0  0.77217  0.82310  0.39805  1.0000
  I   I313      1.0  0.37060  0.53250  0.65951  1.0000
  I   I314      1.0  0.31626  0.30735  0.78633  1.0000
  I   I315      1.0  0.33195  0.42459  0.90334  1.0000
  I   I316      1.0  0.75833  0.56937  0.84158  1.0000
  I   I317      1.0  0.55339  0.64198  0.15635  1.0000
  I   I318      1.0  0.64852  0.50485  0.90238  1.0000
  I   I319      1.0  0.91412  0.44356  0.77286  1.0000
  I   I320      1.0  0.94691  0.31786  0.31257  1.0000
  I   I321      1.0  0.86397  0.32791  0.83395  1.0000
  I   I322      1.0  0.89316  0.99365  0.90415  1.0000
  I   I323      1.0  0.74035  0.61822  0.96790  1.0000
  I   I324      1.0  0.79538  0.73000  0.48676  1.0000
  I   I325      1.0  0.64836  0.12298  0.10800  1.0000
  I   I326      1.0  0.56025  0.25969  0.38580  1.0000
  I   I327      1.0  0.54704  0.37621  0.86855  1.0000
  I   I328      1.0  0.06076  0.94678  0.98438  1.0000
  I   I329      1.0  0.69720  0.17799  0.60751  1.0000
  I   I330      1.0  0.15116  0.86871  0.31637  1.0000
  I   I331      1.0  0.11059  0.52009  0.73091  1.0000
  I   I332      1.0  0.75487  0.34500  0.10630  1.0000
  I   I333      1.0  0.93328  0.57175  0.48790  1.0000
  I   I334      1.0  0.61934  0.13090  0.69724  1.0000
  I   I335      1.0  0.68255  0.04951  0.59529  1.0000
  I   I336      1.0  0.53789  0.00269  0.96035  1.0000
  I   I337      1.0  0.54740  0.78470  0.30703  1.0000
  I   I338      1.0  0.85134  0.06907  0.27540  1.0000
  I   I339      1.0  0.97505  0.16100  0.19601  1.0000
  I   I340      1.0  0.23431  0.99662  0.50956  1.0000
  I   I341      1.0  0.08981  0.23958  0.25451  1.0000
  I   I342      1.0  0.07778  0.23164  0.83285  1.0000
  I   I343      1.0  0.97698  0.95078  0.29160  1.0000
  I   I344      1.0  0.94133  0.04008  0.70079  1.0000
  I   I345      1.0  0.91431  0.85362  0.73550  1.0000
  I   I346      1.0  0.32614  0.86224  0.20452  1.0000
  I   I347      1.0  0.21882  0.85514  0.79381  1.0000
  I   I348      1.0  0.00257  0.63825  0.90739  1.0000
  I   I349      1.0  0.26948  0.16110  0.21905  1.0000
  I   I350      1.0  0.43174  0.17698  0.15090  1.0000
  I   I351      1.0  0.25105  0.12140  0.43293  1.0000
  I   I352      1.0  0.15527  0.41582  0.25463  1.0000
  I   I353      1.0  0.16042  0.74455  0.08712  1.0000
  I   I354      1.0  0.12826  0.64874  0.47977  1.0000
  I   I355      1.0  0.64412  0.63089  0.61293  1.0000
  I   I356      1.0  0.78148  0.76658  0.85911  1.0000
  I   I357      1.0  0.19095  0.55250  0.72562  1.0000
  I   I358      1.0  0.46701  0.99138  0.56285  1.0000
  I   I359      1.0  0.83261  0.81908  0.01731  1.0000
  I   I360      1.0  0.69290  0.88229  0.37178  1.0000
  I   I361      1.0  0.42093  0.49034  0.77539  1.0000
  I   I362      1.0  0.34919  0.22640  0.85138  1.0000
  I   I363      1.0  0.41580  0.38778  0.97464  1.0000
  I   I364      1.0  0.72757  0.56884  0.68589  1.0000
  I   I365      1.0  0.50579  0.69503  0.04916  1.0000
  I   I366      1.0  0.64258  0.44040  0.87027  1.0000
  I   I367      1.0  0.87960  0.44105  0.90622  1.0000
  I   I368      1.0  0.93402  0.36383  0.16119  1.0000
  I   I369      1.0  0.93164  0.30569  0.72101  1.0000
  I   I370      1.0  0.90209  0.00072  0.06558  1.0000
  I   I371      1.0  0.65604  0.66161  0.96363  1.0000
  I   I372      1.0  0.84602  0.64000  0.44736  1.0000
  I   I373      1.0  0.71394  0.11595  0.11200  1.0000
  I   I374      1.0  0.52631  0.24945  0.24467  1.0000
  I   I375      1.0  0.51944  0.33325  0.01580  1.0000
  I   I376      1.0  0.12956  0.94310  0.90448  1.0000
  I   I377      1.0  0.75272  0.14398  0.51691  1.0000
  I   I378      1.0  0.19780  0.82664  0.41385  1.0000
  I   I379      1.0  0.11633  0.50897  0.58195  1.0000
  I   I380      1.0  0.90067  0.23890  0.96822  1.0000
  I   I381      1.0  0.96868  0.53165  0.37567  1.0000
  I   I382      1.0  0.52906  0.18202  0.69002  1.0000
  I   I383      1.0  0.75525  0.98198  0.55281  1.0000
  I   I384      1.0  0.58689  0.02861  0.86941  1.0000
