data_image0
_chemical_formula_structural       Ti96I384
_chemical_formula_sum              "Ti96 I384"
_cell_length_a       61.6494
_cell_length_b       61.5252
_cell_length_c       29.9315
_cell_angle_alpha    88.7757
_cell_angle_beta     88.7757
_cell_angle_gamma    62.1586

_space_group_name_H-M_alt    "P 1"
_space_group_IT_number       1

loop_
  _space_group_symop_operation_xyz
  'x, y, z'

loop_
  _atom_site_type_symbol
  _atom_site_label
  _atom_site_symmetry_multiplicity
  _atom_site_fract_x
  _atom_site_fract_y
  _atom_site_fract_z
  _atom_site_occupancy
  Ti  Ti1       1.0  0.59364  0.06272  0.50080  1.0000
  Ti  Ti2       1.0  0.47570  0.12331  0.29202  1.0000
  Ti  Ti3       1.0  0.01306  0.60235  0.97110  1.0000
  Ti  Ti4       1.0  0.45688  0.49112  0.62026  1.0000
  Ti  Ti5       1.0  0.19694  0.78550  0.18456  1.0000
  Ti  Ti6       1.0  0.52212  0.08156  0.05531  1.0000
  Ti  Ti7       1.0  0.06805  0.92115  0.39095  1.0000
  Ti  Ti8       1.0  0.15530  0.55451  0.19327  1.0000
  Ti  Ti9       1.0  0.10880  0.91163  0.69020  1.0000
  Ti  Ti10      1.0  0.98516  0.88234  0.77344  1.0000
  Ti  Ti11      1.0  0.37015  0.36042  0.88695  1.0000
  Ti  Ti12      1.0  0.16434  0.73940  0.57493  1.0000
  Ti  Ti13      1.0  0.35328  0.40981  0.54637  1.0000
  Ti  Ti14      1.0  0.17190  0.05869  0.54576  1.0000
  Ti  Ti15      1.0  0.52225  0.76088  0.93194  1.0000
  Ti  Ti16      1.0  0.97747  0.44572  0.68131  1.0000
  Ti  Ti17      1.0  0.20857  0.21824  0.28460  1.0000
  Ti  Ti18      1.0  0.71360  0.57825  0.73834  1.0000
  Ti  Ti19      1.0  0.76400  0.03757  0.33423  1.0000
  Ti  Ti20      1.0  0.37722  0.14897  0.74229  1.0000
  Ti  Ti21      1.0  0.68108  0.31887  0.23166  1.0000
  Ti  Ti22      1.0  0.55407  0.87666  0.35781  1.0000
  Ti  Ti23      1.0  0.61451  0.86874  0.01777  1.0000
  Ti  Ti24      1.0  0.33587  0.86975  0.52698  1.0000
  Ti  Ti25      1.0  0.20129  0.31599  0.87635  1.0000
  Ti  Ti26      1.0  0.95266  0.31398  0.33496  1.0000
  Ti  Ti27      1.0  0.32594  0.49553  0.84338  1.0000
  Ti  Ti28      1.0  0.74598  0.52690  0.99845  1.0000
  Ti  Ti29      1.0  0.98307  0.12625  0.14525  1.0000
  Ti  Ti30      1.0  0.87520  0.41878  0.13019  1.0000
  Ti  Ti31      1.0  0.70018  0.39675  0.52993  1.0000
  Ti  Ti32      1.0  0.67203  0.05893  0.83231  1.0000
  Ti  Ti33      1.0  0.36220  0.79489  0.29594  1.0000
  Ti  Ti34      1.0  0.59351  0.79315  0.65757  1.0000
  Ti  Ti35      1.0  0.80008  0.33442  0.09264  1.0000
  Ti  Ti36      1.0  0.07087  0.50386  0.74719  1.0000
  Ti  Ti37      1.0  0.08229  0.20046  0.23396  1.0000
  Ti  Ti38      1.0  0.52434  0.20856  0.58326  1.0000
  Ti  Ti39      1.0  0.42503  0.25876  0.10496  1.0000
  Ti  Ti40      1.0  0.78011  0.85191  0.42409  1.0000
  Ti  Ti41      1.0  0.53106  0.69442  0.37624  1.0000
  Ti  Ti42      1.0  0.87870  0.83113  0.66222  1.0000
  Ti  Ti43      1.0  0.29531  0.11553  0.04936  1.0000
  Ti  Ti44      1.0  0.80998  0.63877  0.25531  1.0000
  Ti  Ti45      1.0  0.50618  0.62734  0.69384  1.0000
  Ti  Ti46      1.0  0.17818  0.01533  0.11467  1.0000
  Ti  Ti47      1.0  0.85859  0.07861  0.10137  1.0000
  Ti  Ti48      1.0  0.35395  0.59729  0.20638  1.0000
  Ti  Ti49      1.0  0.64759  0.07688  0.55716  1.0000
  Ti  Ti50      1.0  0.77029  0.19817  0.97518  1.0000
  Ti  Ti51      1.0  0.51410  0.14667  0.30117  1.0000
  Ti  Ti52      1.0  0.43152  0.54708  0.59324  1.0000
  Ti  Ti53      1.0  0.20639  0.72471  0.16775  1.0000
  Ti  Ti54      1.0  0.46033  0.05700  0.05634  1.0000
  Ti  Ti55      1.0  0.07655  0.89954  0.27948  1.0000
  Ti  Ti56      1.0  0.15106  0.60096  0.24502  1.0000
  Ti  Ti57      1.0  0.05440  0.97149  0.73353  1.0000
  Ti  Ti58      1.0  0.33402  0.08386  0.97592  1.0000
  Ti  Ti59      1.0  0.00406  0.89466  0.87994  1.0000
  Ti  Ti60      1.0  0.22660  0.73329  0.61258  1.0000
  Ti  Ti61      1.0  0.47402  0.74161  0.85223  1.0000
  Ti  Ti62      1.0  0.29153  0.44338  0.48924  1.0000
  Ti  Ti63      1.0  0.15508  0.02759  0.45569  1.0000
  Ti  Ti64      1.0  0.71357  0.54038  0.63867  1.0000
  Ti  Ti65      1.0  0.93178  0.45114  0.79425  1.0000
  Ti  Ti66      1.0  0.60726  0.21448  0.74511  1.0000
  Ti  Ti67      1.0  0.77221  0.98831  0.27669  1.0000
  Ti  Ti68      1.0  0.33030  0.14585  0.63520  1.0000
  Ti  Ti69      1.0  0.64988  0.36609  0.11764  1.0000
  Ti  Ti70      1.0  0.57810  0.81764  0.39655  1.0000
  Ti  Ti71      1.0  0.58742  0.91090  0.08321  1.0000
  Ti  Ti72      1.0  0.83929  0.83472  0.17346  1.0000
  Ti  Ti73      1.0  0.29936  0.55146  0.74884  1.0000
  Ti  Ti74      1.0  0.23857  0.35581  0.90749  1.0000
  Ti  Ti75      1.0  0.93095  0.26509  0.34821  1.0000
  Ti  Ti76      1.0  0.88689  0.45034  0.21541  1.0000
  Ti  Ti77      1.0  0.69763  0.57262  0.98957  1.0000
  Ti  Ti78      1.0  0.99309  0.06446  0.20004  1.0000
  Ti  Ti79      1.0  0.35878  0.74856  0.30460  1.0000
  Ti  Ti80      1.0  0.67918  0.42884  0.45732  1.0000
  Ti  Ti81      1.0  0.67149  0.00909  0.89922  1.0000
  Ti  Ti82      1.0  0.66401  0.74392  0.74622  1.0000
  Ti  Ti83      1.0  0.75690  0.36979  0.97839  1.0000
  Ti  Ti84      1.0  0.13359  0.48346  0.73860  1.0000
  Ti  Ti85      1.0  0.07674  0.20425  0.11121  1.0000
  Ti  Ti86      1.0  0.55013  0.18384  0.71365  1.0000
  Ti  Ti87      1.0  0.48881  0.21539  0.11125  1.0000
  Ti  Ti88      1.0  0.83514  0.79120  0.46577  1.0000
  Ti  Ti89      1.0  0.56595  0.68054  0.44461  1.0000
  Ti  Ti90      1.0  0.90816  0.86325  0.60379  1.0000
  Ti  Ti91      1.0  0.43742  0.64794  0.76926  1.0000
  Ti  Ti92      1.0  0.93161  0.20567  0.67417  1.0000
  Ti  Ti93      1.0  0.75403  0.68025  0.18055  1.0000
  Ti  Ti94      1.0  0.35677  0.62508  0.09264  1.0000
  Ti  Ti95      1.0  0.21498  0.02030  0.00360  1.0000
  Ti  Ti96      1.0  0.83945  0.13746  0.07427  1.0000
  I   I1        1.0  0.85628  0.16714  0.05077  1.0000
  I   I2        1.0  0.55866  0.12913  0.33223  1.0000
  I   I3        1.0  0.63351  0.01938  0.48870  1.0000
  I   I4        1.0  0.16971  0.76036  0.22414  1.0000
  I   I5        1.0  0.46793  0.09501  0.09853  1.0000
  I   I6        1.0  0.46447  0.04653  0.14281  1.0000
  I   I7        1.0  0.11616  0.62917  0.30012  1.0000
  I   I8        1.0  0.14005  0.63541  0.18525  1.0000
  I   I9        1.0  0.07334  0.92026  0.75730  1.0000
  I   I10       1.0  0.97756  0.90126  0.69426  1.0000
  I   I11       1.0  0.38565  0.31302  0.86313  1.0000
  I   I12       1.0  0.16237  0.83335  0.17807  1.0000
  I   I13       1.0  0.34136  0.40795  0.45150  1.0000
  I   I14       1.0  0.18279  0.01272  0.53825  1.0000
  I   I15       1.0  0.52136  0.73701  0.84603  1.0000
  I   I16       1.0  0.93998  0.41175  0.83908  1.0000
  I   I17       1.0  0.57849  0.23281  0.81724  1.0000
  I   I18       1.0  0.75722  0.55670  0.77562  1.0000
  I   I19       1.0  0.31920  0.11198  0.65956  1.0000
  I   I20       1.0  0.32257  0.39131  0.89404  1.0000
  I   I21       1.0  0.66646  0.36090  0.03028  1.0000
  I   I22       1.0  0.56569  0.91652  0.99561  1.0000
  I   I23       1.0  0.60933  0.90035  0.16249  1.0000
  I   I24       1.0  0.57234  0.78487  0.35318  1.0000
  I   I25       1.0  0.27242  0.31632  0.86933  1.0000
  I   I26       1.0  0.99788  0.30292  0.30542  1.0000
  I   I27       1.0  0.30359  0.53797  0.66685  1.0000
  I   I28       1.0  0.65856  0.59213  0.93196  1.0000
  I   I29       1.0  0.03940  0.05413  0.19391  1.0000
  I   I30       1.0  0.85096  0.48922  0.24317  1.0000
  I   I31       1.0  0.67439  0.47195  0.42365  1.0000
  I   I32       1.0  0.69457  0.95598  0.91423  1.0000
  I   I33       1.0  0.39084  0.74343  0.36914  1.0000
  I   I34       1.0  0.76422  0.33154  0.04961  1.0000
  I   I35       1.0  0.07270  0.52270  0.82355  1.0000
  I   I36       1.0  0.54562  0.81468  0.67671  1.0000
  I   I37       1.0  0.07821  0.16447  0.18135  1.0000
  I   I38       1.0  0.47701  0.17632  0.12374  1.0000
  I   I39       1.0  0.03269  0.21080  0.09515  1.0000
  I   I40       1.0  0.57094  0.67026  0.53075  1.0000
  I   I41       1.0  0.89159  0.90504  0.55384  1.0000
  I   I42       1.0  0.87188  0.78386  0.52260  1.0000
  I   I43       1.0  0.37136  0.04350  0.96561  1.0000
  I   I44       1.0  0.77743  0.66604  0.10932  1.0000
  I   I45       1.0  0.48891  0.61491  0.78458  1.0000
  I   I46       1.0  0.22357  0.98928  0.13409  1.0000
  I   I47       1.0  0.88401  0.10214  0.10629  1.0000
  I   I48       1.0  0.39568  0.58820  0.24078  1.0000
  I   I49       1.0  0.63483  0.11981  0.59379  1.0000
  I   I50       1.0  0.49851  0.12480  0.37169  1.0000
  I   I51       1.0  0.43852  0.12776  0.23134  1.0000
  I   I52       1.0  0.43302  0.49236  0.70113  1.0000
  I   I53       1.0  0.23699  0.74105  0.21492  1.0000
  I   I54       1.0  0.46350  0.01652  0.01988  1.0000
  I   I55       1.0  0.03317  0.93753  0.44561  1.0000
  I   I56       1.0  0.19221  0.51236  0.19088  1.0000
  I   I57       1.0  0.09808  0.96644  0.69609  1.0000
  I   I58       1.0  0.00327  0.83648  0.75104  1.0000
  I   I59       1.0  0.94118  0.90677  0.79128  1.0000
  I   I60       1.0  0.15746  0.70214  0.60412  1.0000
  I   I61       1.0  0.30194  0.47808  0.46601  1.0000
  I   I62       1.0  0.28004  0.43066  0.41476  1.0000
  I   I63       1.0  0.21725  0.04359  0.55261  1.0000
  I   I64       1.0  0.96932  0.49005  0.63724  1.0000
  I   I65       1.0  0.88681  0.45635  0.77716  1.0000
  I   I66       1.0  0.60806  0.25478  0.73089  1.0000
  I   I67       1.0  0.72640  0.01462  0.28087  1.0000
  I   I68       1.0  0.39644  0.17708  0.76708  1.0000
  I   I69       1.0  0.65332  0.30078  0.27895  1.0000
  I   I70       1.0  0.58439  0.85763  0.42457  1.0000
  I   I71       1.0  0.63823  0.88564  0.96273  1.0000
  I   I72       1.0  0.83513  0.87907  0.16877  1.0000
  I   I73       1.0  0.34320  0.51104  0.76191  1.0000
  I   I74       1.0  0.95818  0.27884  0.40255  1.0000
  I   I75       1.0  0.90216  0.31831  0.34294  1.0000
  I   I76       1.0  0.77016  0.49107  0.05634  1.0000
  I   I77       1.0  0.71283  0.60113  0.03776  1.0000
  I   I78       1.0  0.98871  0.15279  0.21102  1.0000
  I   I79       1.0  0.38528  0.70487  0.27524  1.0000
  I   I80       1.0  0.64832  0.42233  0.53808  1.0000
  I   I81       1.0  0.70695  0.07220  0.82580  1.0000
  I   I82       1.0  0.64150  0.77928  0.67593  1.0000
  I   I83       1.0  0.78452  0.32090  0.16998  1.0000
  I   I84       1.0  0.11358  0.45882  0.78082  1.0000
  I   I85       1.0  0.09106  0.22984  0.05419  1.0000
  I   I86       1.0  0.50793  0.22326  0.67851  1.0000
  I   I87       1.0  0.45527  0.24900  0.17402  1.0000
  I   I88       1.0  0.79262  0.86089  0.33874  1.0000
  I   I89       1.0  0.57005  0.70258  0.35276  1.0000
  I   I90       1.0  0.84937  0.84712  0.73721  1.0000
  I   I91       1.0  0.46109  0.63495  0.66777  1.0000
  I   I92       1.0  0.94508  0.22426  0.60300  1.0000
  I   I93       1.0  0.71348  0.67455  0.17507  1.0000
  I   I94       1.0  0.38112  0.57764  0.11544  1.0000
  I   I95       1.0  0.25737  0.01554  0.98309  1.0000
  I   I96       1.0  0.82970  0.14412  0.16399  1.0000
  I   I97       1.0  0.03940  0.61893  0.00097  1.0000
  I   I98       1.0  0.68602  0.08200  0.53997  1.0000
  I   I99       1.0  0.46773  0.16222  0.23757  1.0000
  I   I100      1.0  0.49763  0.44851  0.62867  1.0000
  I   I101      1.0  0.41697  0.53274  0.51603  1.0000
  I   I102      1.0  0.23096  0.79724  0.19982  1.0000
  I   I103      1.0  0.10648  0.91833  0.43525  1.0000
  I   I104      1.0  0.12489  0.86673  0.26221  1.0000
  I   I105      1.0  0.06891  0.92827  0.63792  1.0000
  I   I106      1.0  0.25866  0.70739  0.66876  1.0000
  I   I107      1.0  0.98837  0.85798  0.86426  1.0000
  I   I108      1.0  0.23988  0.69222  0.56127  1.0000
  I   I109      1.0  0.52550  0.79754  0.89585  1.0000
  I   I110      1.0  0.33655  0.44048  0.60714  1.0000
  I   I111      1.0  0.15793  0.05676  0.62904  1.0000
  I   I112      1.0  0.69145  0.51276  0.63079  1.0000
  I   I113      1.0  0.95399  0.41950  0.71582  1.0000
  I   I114      1.0  0.23256  0.18366  0.34604  1.0000
  I   I115      1.0  0.77159  0.99493  0.37656  1.0000
  I   I116      1.0  0.77990  0.94540  0.30860  1.0000
  I   I117      1.0  0.38271  0.10592  0.69358  1.0000
  I   I118      1.0  0.52803  0.84487  0.39670  1.0000
  I   I119      1.0  0.51307  0.91801  0.36386  1.0000
  I   I120      1.0  0.85121  0.83069  0.26035  1.0000
  I   I121      1.0  0.28756  0.50908  0.78270  1.0000
  I   I122      1.0  0.18879  0.32050  0.79188  1.0000
  I   I123      1.0  0.93266  0.33666  0.26108  1.0000
  I   I124      1.0  0.82820  0.44040  0.13274  1.0000
  I   I125      1.0  0.72686  0.56630  0.91743  1.0000
  I   I126      1.0  0.99546  0.06854  0.28744  1.0000
  I   I127      1.0  0.32221  0.79652  0.33463  1.0000
  I   I128      1.0  0.74659  0.36570  0.50654  1.0000
  I   I129      1.0  0.71045  0.01142  0.93624  1.0000
  I   I130      1.0  0.03856  0.49085  0.78069  1.0000
  I   I131      1.0  0.59500  0.82572  0.60301  1.0000
  I   I132      1.0  0.77070  0.38877  0.91802  1.0000
  I   I133      1.0  0.41533  0.24386  0.02608  1.0000
  I   I134      1.0  0.48346  0.25203  0.56401  1.0000
  I   I135      1.0  0.54390  0.14581  0.74413  1.0000
  I   I136      1.0  0.92541  0.81839  0.66728  1.0000
  I   I137      1.0  0.80504  0.79795  0.38593  1.0000
  I   I138      1.0  0.49633  0.72957  0.33361  1.0000
  I   I139      1.0  0.54418  0.63507  0.72921  1.0000
  I   I140      1.0  0.88902  0.23700  0.70305  1.0000
  I   I141      1.0  0.81120  0.63858  0.34379  1.0000
  I   I142      1.0  0.37761  0.62278  0.00758  1.0000
  I   I143      1.0  0.19150  0.04303  0.93215  1.0000
  I   I144      1.0  0.86653  0.06557  0.19039  1.0000
  I   I145      1.0  0.60215  0.07609  0.58175  1.0000
  I   I146      1.0  0.54270  0.14093  0.22781  1.0000
  I   I147      1.0  0.96593  0.63137  0.97977  1.0000
  I   I148      1.0  0.38511  0.56658  0.63516  1.0000
  I   I149      1.0  0.24265  0.70407  0.10605  1.0000
  I   I150      1.0  0.54868  0.03843  0.10099  1.0000
  I   I151      1.0  0.05123  0.88442  0.23334  1.0000
  I   I152      1.0  0.18509  0.57243  0.16455  1.0000
  I   I153      1.0  0.15071  0.91277  0.69464  1.0000
  I   I154      1.0  0.25633  0.14226  0.99934  1.0000
  I   I155      1.0  0.38705  0.36947  0.96337  1.0000
  I   I156      1.0  0.17421  0.71331  0.50002  1.0000
  I   I157      1.0  0.50608  0.78301  0.00844  1.0000
  I   I158      1.0  0.19424  0.00788  0.41048  1.0000
  I   I159      1.0  0.42889  0.76197  0.88704  1.0000
  I   I160      1.0  0.71555  0.54516  0.55342  1.0000
  I   I161      1.0  0.20019  0.20347  0.20854  1.0000
  I   I162      1.0  0.67374  0.58032  0.67852  1.0000
  I   I163      1.0  0.77889  0.97774  0.19233  1.0000
  I   I164      1.0  0.29088  0.18425  0.63771  1.0000
  I   I165      1.0  0.61375  0.35733  0.09772  1.0000
  I   I166      1.0  0.62233  0.80880  0.36022  1.0000
  I   I167      1.0  0.60070  0.84822  0.95999  1.0000
  I   I168      1.0  0.37140  0.87984  0.53861  1.0000
  I   I169      1.0  0.20816  0.33933  0.95530  1.0000
  I   I170      1.0  0.16334  0.31685  0.91331  1.0000
  I   I171      1.0  0.34241  0.44847  0.82561  1.0000
  I   I172      1.0  0.90078  0.46951  0.14606  1.0000
  I   I173      1.0  0.98113  0.08327  0.10652  1.0000
  I   I174      1.0  0.88239  0.37253  0.12418  1.0000
  I   I175      1.0  0.70240  0.36791  0.59749  1.0000
  I   I176      1.0  0.63813  0.00585  0.95147  1.0000
  I   I177      1.0  0.32399  0.73775  0.32593  1.0000
  I   I178      1.0  0.69974  0.75734  0.73574  1.0000
  I   I179      1.0  0.84378  0.32828  0.12624  1.0000
  I   I180      1.0  0.12522  0.53361  0.72975  1.0000
  I   I181      1.0  0.04555  0.21626  0.29654  1.0000
  I   I182      1.0  0.53758  0.20053  0.79677  1.0000
  I   I183      1.0  0.39193  0.30256  0.10723  1.0000
  I   I184      1.0  0.83098  0.83309  0.43369  1.0000
  I   I185      1.0  0.51940  0.67251  0.43898  1.0000
  I   I186      1.0  0.95026  0.86454  0.61085  1.0000
  I   I187      1.0  0.93679  0.16136  0.65978  1.0000
  I   I188      1.0  0.76488  0.68339  0.26944  1.0000
  I   I189      1.0  0.53248  0.58701  0.65014  1.0000
  I   I190      1.0  0.14947  0.04845  0.17132  1.0000
  I   I191      1.0  0.80537  0.18730  0.91707  1.0000
  I   I192      1.0  0.33281  0.61064  0.28862  1.0000
  I   I193      1.0  0.66534  0.03726  0.60650  1.0000
  I   I194      1.0  0.74449  0.18175  0.92910  1.0000
  I   I195      1.0  0.02625  0.58814  0.88795  1.0000
  I   I196      1.0  0.45784  0.53516  0.66513  1.0000
  I   I197      1.0  0.31358  0.14585  0.01818  1.0000
  I   I198      1.0  0.49714  0.06551  0.99495  1.0000
  I   I199      1.0  0.07341  0.93560  0.21707  1.0000
  I   I200      1.0  0.18959  0.59993  0.26947  1.0000
  I   I201      1.0  0.12328  0.87032  0.65036  1.0000
  I   I202      1.0  0.96941  0.92923  0.94108  1.0000
  I   I203      1.0  0.68417  0.35746  0.17857  1.0000
  I   I204      1.0  0.12178  0.78359  0.56994  1.0000
  I   I205      1.0  0.30824  0.40729  0.54634  1.0000
  I   I206      1.0  0.12706  0.02773  0.38808  1.0000
  I   I207      1.0  0.45287  0.77235  0.78331  1.0000
  I   I208      1.0  0.02524  0.42670  0.67776  1.0000
  I   I209      1.0  0.24245  0.23064  0.26128  1.0000
  I   I210      1.0  0.73483  0.57832  0.65817  1.0000
  I   I211      1.0  0.76953  0.05866  0.26427  1.0000
  I   I212      1.0  0.41134  0.11505  0.80308  1.0000
  I   I213      1.0  0.69250  0.29234  0.15870  1.0000
  I   I214      1.0  0.55276  0.85369  0.28326  1.0000
  I   I215      1.0  0.64643  0.82981  0.06310  1.0000
  I   I216      1.0  0.35653  0.82986  0.47931  1.0000
  I   I217      1.0  0.23823  0.26976  0.86768  1.0000
  I   I218      1.0  0.94715  0.26054  0.26483  1.0000
  I   I219      1.0  0.29092  0.53719  0.87014  1.0000
  I   I220      1.0  0.71029  0.51890  0.95384  1.0000
  I   I221      1.0  0.01973  0.12950  0.10725  1.0000
  I   I222      1.0  0.89013  0.40859  0.04123  1.0000
  I   I223      1.0  0.71655  0.41026  0.41152  1.0000
  I   I224      1.0  0.69624  0.01289  0.81423  1.0000
  I   I225      1.0  0.38564  0.81076  0.34215  1.0000
  I   I226      1.0  0.67190  0.70802  0.68775  1.0000
  I   I227      1.0  0.83716  0.30345  0.03235  1.0000
  I   I228      1.0  0.06017  0.54287  0.69891  1.0000
  I   I229      1.0  0.10288  0.16705  0.05144  1.0000
  I   I230      1.0  0.55105  0.20373  0.51300  1.0000
  I   I231      1.0  0.50890  0.20370  0.03412  1.0000
  I   I232      1.0  0.74378  0.84345  0.41694  1.0000
  I   I233      1.0  0.59514  0.63447  0.42216  1.0000
  I   I234      1.0  0.86008  0.85171  0.58249  1.0000
  I   I235      1.0  0.27876  0.08776  0.07765  1.0000
  I   I236      1.0  0.85512  0.60546  0.24052  1.0000
  I   I237      1.0  0.50280  0.65617  0.62969  1.0000
  I   I238      1.0  0.17436  0.97124  0.10165  1.0000
  I   I239      1.0  0.84137  0.10378  0.01260  1.0000
  I   I240      1.0  0.32188  0.67008  0.06972  1.0000
  I   I241      1.0  0.57078  0.03960  0.52845  1.0000
  I   I242      1.0  0.46572  0.08815  0.32335  1.0000
  I   I243      1.0  0.01482  0.56181  0.00721  1.0000
  I   I244      1.0  0.42674  0.47783  0.58692  1.0000
  I   I245      1.0  0.22715  0.68456  0.21876  1.0000
  I   I246      1.0  0.53714  0.09938  0.11489  1.0000
  I   I247      1.0  0.08918  0.93375  0.31236  1.0000
  I   I248      1.0  0.15922  0.55355  0.28283  1.0000
  I   I249      1.0  0.01092  0.96924  0.72993  1.0000
  I   I250      1.0  0.99063  0.93628  0.83159  1.0000
  I   I251      1.0  0.39201  0.36233  0.80757  1.0000
  I   I252      1.0  0.25168  0.75086  0.56358  1.0000
  I   I253      1.0  0.37193  0.36864  0.58435  1.0000
  I   I254      1.0  0.16269  0.06424  0.42840  1.0000
  I   I255      1.0  0.47968  0.69578  0.84340  1.0000
  I   I256      1.0  0.91492  0.48888  0.84237  1.0000
  I   I257      1.0  0.16813  0.23805  0.32661  1.0000
  I   I258      1.0  0.75614  0.49359  0.63794  1.0000
  I   I259      1.0  0.79689  0.04576  0.38053  1.0000
  I   I260      1.0  0.33685  0.14199  0.54763  1.0000
  I   I261      1.0  0.72279  0.30429  0.27404  1.0000
  I   I262      1.0  0.57753  0.89875  0.32173  1.0000
  I   I263      1.0  0.57752  0.87355  0.07795  1.0000
  I   I264      1.0  0.30301  0.89614  0.47100  1.0000
  I   I265      1.0  0.24446  0.39485  0.87099  1.0000
  I   I266      1.0  0.96463  0.21952  0.33350  1.0000
  I   I267      1.0  0.36388  0.49997  0.87407  1.0000
  I   I268      1.0  0.76677  0.55323  0.02275  1.0000
  I   I269      1.0  0.97711  0.03501  0.21756  1.0000
  I   I270      1.0  0.90641  0.43386  0.29087  1.0000
  I   I271      1.0  0.70685  0.43217  0.55255  1.0000
  I   I272      1.0  0.66896  0.06542  0.92353  1.0000
  I   I273      1.0  0.40411  0.76494  0.24992  1.0000
  I   I274      1.0  0.66374  0.73135  0.82940  1.0000
  I   I275      1.0  0.78825  0.37474  0.05003  1.0000
  I   I276      1.0  0.09266  0.48498  0.66958  1.0000
  I   I277      1.0  0.10738  0.20036  0.30589  1.0000
  I   I278      1.0  0.56084  0.16284  0.62756  1.0000
  I   I279      1.0  0.40600  0.23693  0.16093  1.0000
  I   I280      1.0  0.79479  0.81864  0.52092  1.0000
  I   I281      1.0  0.54456  0.65411  0.32791  1.0000
  I   I282      1.0  0.87513  0.78931  0.66692  1.0000
  I   I283      1.0  0.28637  0.14161  0.12855  1.0000
  I   I284      1.0  0.77420  0.62741  0.20628  1.0000
  I   I285      1.0  0.40984  0.69584  0.77769  1.0000
  I   I286      1.0  0.19851  0.05028  0.08578  1.0000
  I   I287      1.0  0.79547  0.15939  0.02726  1.0000
  I   I288      1.0  0.32202  0.62199  0.13789  1.0000
  I   I289      1.0  0.54996  0.10298  0.51018  1.0000
  I   I290      1.0  0.77110  0.23729  0.00908  1.0000
  I   I291      1.0  0.52415  0.09765  0.28661  1.0000
  I   I292      1.0  0.47820  0.51360  0.55243  1.0000
  I   I293      1.0  0.17747  0.73073  0.10277  1.0000
  I   I294      1.0  0.54945  0.08660  0.99415  1.0000
  I   I295      1.0  0.07449  0.87771  0.37168  1.0000
  I   I296      1.0  0.12822  0.53515  0.14698  1.0000
  I   I297      1.0  0.03710  0.01254  0.68144  1.0000
  I   I298      1.0  0.30851  0.05975  0.94148  1.0000
  I   I299      1.0  0.03482  0.87224  0.80444  1.0000
  I   I300      1.0  0.19070  0.76693  0.55269  1.0000
  I   I301      1.0  0.56939  0.73603  0.95569  1.0000
  I   I302      1.0  0.24808  0.47582  0.52017  1.0000
  I   I303      1.0  0.15764  0.10706  0.53222  1.0000
  I   I304      1.0  0.71686  0.53016  0.73623  1.0000
  I   I305      1.0  0.97292  0.42693  0.59793  1.0000
  I   I306      1.0  0.57120  0.22161  0.68564  1.0000
  I   I307      1.0  0.71910  0.06812  0.36488  1.0000
  I   I308      1.0  0.33462  0.16109  0.77373  1.0000
  I   I309      1.0  0.63400  0.35588  0.22039  1.0000
  I   I310      1.0  0.59527  0.79653  0.47378  1.0000
  I   I311      1.0  0.54557  0.93656  0.12990  1.0000
  I   I312      1.0  0.79315  0.84426  0.17455  1.0000
  I   I313      1.0  0.25675  0.59028  0.77283  1.0000
  I   I314      1.0  0.25493  0.34931  0.99109  1.0000
  I   I315      1.0  0.94481  0.34881  0.39144  1.0000
  I   I316      1.0  0.92185  0.41202  0.14959  1.0000
  I   I317      1.0  0.77438  0.50867  0.92785  1.0000
  I   I318      1.0  0.94971  0.11289  0.19765  1.0000
  I   I319      1.0  0.34334  0.83480  0.23156  1.0000
  I   I320      1.0  0.69629  0.36944  0.45756  1.0000
  I   I321      1.0  0.64739  0.08316  0.76242  1.0000
  I   I322      1.0  0.60440  0.75755  0.59989  1.0000
  I   I323      1.0  0.71694  0.40285  0.01540  1.0000
  I   I324      1.0  0.16443  0.47485  0.80021  1.0000
  I   I325      1.0  0.12460  0.17512  0.17102  1.0000
  I   I326      1.0  0.59936  0.16812  0.73157  1.0000
  I   I327      1.0  0.51944  0.23171  0.13959  1.0000
  I   I328      1.0  0.76089  0.89584  0.45194  1.0000
  I   I329      1.0  0.52430  0.73016  0.44862  1.0000
  I   I330      1.0  0.87495  0.88644  0.66476  1.0000
  I   I331      1.0  0.40217  0.64181  0.73692  1.0000
  I   I332      1.0  0.34343  0.07721  0.06800  1.0000
  I   I333      1.0  0.72395  0.72508  0.15655  1.0000
  I   I334      1.0  0.38700  0.63410  0.14423  1.0000
  I   I335      1.0  0.22604  0.97201  0.98984  1.0000
  I   I336      1.0  0.81153  0.08971  0.11214  1.0000
  I   I337      1.0  0.62719  0.08696  0.47215  1.0000
  I   I338      1.0  0.73044  0.19990  0.03385  1.0000
  I   I339      1.0  0.48879  0.19194  0.32300  1.0000
  I   I340      1.0  0.42095  0.59412  0.56792  1.0000
  I   I341      1.0  0.20657  0.77450  0.09715  1.0000
  I   I342      1.0  0.41605  0.08507  0.04763  1.0000
  I   I343      1.0  0.02971  0.93193  0.31885  1.0000
  I   I344      1.0  0.11281  0.59867  0.19261  1.0000
  I   I345      1.0  0.05831  0.98324  0.81469  1.0000
  I   I346      1.0  0.33710  0.10697  0.90047  1.0000
  I   I347      1.0  0.03552  0.89079  0.94385  1.0000
  I   I348      1.0  0.18415  0.73654  0.66114  1.0000
  I   I349      1.0  0.49189  0.73925  0.94198  1.0000
  I   I350      1.0  0.39291  0.41612  0.52385  1.0000
  I   I351      1.0  0.12156  0.05614  0.52116  1.0000
  I   I352      1.0  0.68891  0.61141  0.80005  1.0000
  I   I353      1.0  0.96545  0.47197  0.75988  1.0000
  I   I354      1.0  0.64925  0.19038  0.78368  1.0000
  I   I355      1.0  0.80952  0.99601  0.29918  1.0000
  I   I356      1.0  0.36751  0.15751  0.64466  1.0000
  I   I357      1.0  0.62477  0.41281  0.13223  1.0000
  I   I358      1.0  0.30617  0.86295  0.57956  1.0000
  I   I359      1.0  0.59889  0.94559  0.04558  1.0000
  I   I360      1.0  0.88693  0.81320  0.15391  1.0000
  I   I361      1.0  0.32081  0.57796  0.73619  1.0000
  I   I362      1.0  0.20020  0.35999  0.85385  1.0000
  I   I363      1.0  0.89679  0.24926  0.34925  1.0000
  I   I364      1.0  0.86647  0.41923  0.23123  1.0000
  I   I365      1.0  0.69789  0.54482  0.05574  1.0000
  I   I366      1.0  0.95473  0.16860  0.10467  1.0000
  I   I367      1.0  0.34359  0.77168  0.21955  1.0000
  I   I368      1.0  0.63996  0.43237  0.40975  1.0000
  I   I369      1.0  0.63685  0.03679  0.83749  1.0000
  I   I370      1.0  0.60842  0.76099  0.73769  1.0000
  I   I371      1.0  0.73400  0.35443  0.92989  1.0000
  I   I372      1.0  0.15974  0.46736  0.66591  1.0000
  I   I373      1.0  0.07199  0.23497  0.17864  1.0000
  I   I374      1.0  0.50563  0.18125  0.57078  1.0000
  I   I375      1.0  0.46096  0.26207  0.05861  1.0000
  I   I376      1.0  0.86389  0.74200  0.44567  1.0000
  I   I377      1.0  0.60424  0.69117  0.44607  1.0000
  I   I378      1.0  0.92052  0.83559  0.53162  1.0000
  I   I379      1.0  0.43057  0.63616  0.85166  1.0000
  I   I380      1.0  0.95603  0.20471  0.74575  1.0000
  I   I381      1.0  0.81929  0.66719  0.18722  1.0000
  I   I382      1.0  0.34963  0.55803  0.21096  1.0000
  I   I383      1.0  0.16385  0.03595  0.03021  1.0000
  I   I384      1.0  0.89777  0.03914  0.06982  1.0000
