data_image0
_chemical_formula_structural       Ti96I384
_chemical_formula_sum              "Ti96 I384"
_cell_length_a       71.4453
_cell_length_b       71.3271
_cell_length_c       34.9173
_cell_angle_alpha    88.7757
_cell_angle_beta     88.7757
_cell_angle_gamma    62.1586

_space_group_name_H-M_alt    "P 1"
_space_group_IT_number       1

loop_
  _space_group_symop_operation_xyz
  'x, y, z'

loop_
  _atom_site_type_symbol
  _atom_site_label
  _atom_site_symmetry_multiplicity
  _atom_site_fract_x
  _atom_site_fract_y
  _atom_site_fract_z
  _atom_site_occupancy
  Ti  Ti1       1.0  0.26855  0.82138  0.18824  1.0000
  Ti  Ti2       1.0  0.00462  0.04966  0.07514  1.0000
  Ti  Ti3       1.0  0.27751  0.16898  0.39258  1.0000
  Ti  Ti4       1.0  0.96498  0.70167  0.74517  1.0000
  Ti  Ti5       1.0  0.43257  0.49095  0.24377  1.0000
  Ti  Ti6       1.0  0.85079  0.82517  0.46344  1.0000
  Ti  Ti7       1.0  0.55811  0.93658  0.56253  1.0000
  Ti  Ti8       1.0  0.10456  0.57675  0.39384  1.0000
  Ti  Ti9       1.0  0.41811  0.24324  0.85191  1.0000
  Ti  Ti10      1.0  0.50894  0.47472  0.76477  1.0000
  Ti  Ti11      1.0  0.23561  0.45557  0.07678  1.0000
  Ti  Ti12      1.0  0.00616  0.57765  0.35444  1.0000
  Ti  Ti13      1.0  0.74365  0.54188  0.01541  1.0000
  Ti  Ti14      1.0  0.01307  0.78643  0.79733  1.0000
  Ti  Ti15      1.0  0.64905  0.58838  0.65415  1.0000
  Ti  Ti16      1.0  0.49490  0.54164  0.73825  1.0000
  Ti  Ti17      1.0  0.24457  0.47118  0.78914  1.0000
  Ti  Ti18      1.0  0.39175  0.06042  0.51341  1.0000
  Ti  Ti19      1.0  0.37107  0.58390  0.38859  1.0000
  Ti  Ti20      1.0  0.19548  0.84815  0.36607  1.0000
  Ti  Ti21      1.0  0.11782  0.53140  0.31630  1.0000
  Ti  Ti22      1.0  0.72971  0.64243  0.44138  1.0000
  Ti  Ti23      1.0  0.16778  0.07491  0.18331  1.0000
  Ti  Ti24      1.0  0.93070  0.78778  0.65302  1.0000
  Ti  Ti25      1.0  0.41318  0.38035  0.38684  1.0000
  Ti  Ti26      1.0  0.72280  0.92797  0.78958  1.0000
  Ti  Ti27      1.0  0.74384  0.19679  0.16006  1.0000
  Ti  Ti28      1.0  0.36629  0.97876  0.81010  1.0000
  Ti  Ti29      1.0  0.21588  0.74963  0.88333  1.0000
  Ti  Ti30      1.0  0.25435  0.84382  0.99076  1.0000
  Ti  Ti31      1.0  0.62873  0.12980  0.20736  1.0000
  Ti  Ti32      1.0  0.32487  0.89302  0.20342  1.0000
  Ti  Ti33      1.0  0.24695  0.59762  0.81158  1.0000
  Ti  Ti34      1.0  0.60507  0.52494  0.83837  1.0000
  Ti  Ti35      1.0  0.10540  0.37431  0.56638  1.0000
  Ti  Ti36      1.0  0.91402  0.24871  0.82773  1.0000
  Ti  Ti37      1.0  0.22533  0.09709  0.55262  1.0000
  Ti  Ti38      1.0  0.86559  0.10042  0.51472  1.0000
  Ti  Ti39      1.0  0.55674  0.60845  0.30938  1.0000
  Ti  Ti40      1.0  0.41508  0.68185  0.77174  1.0000
  Ti  Ti41      1.0  0.56706  0.25444  0.64298  1.0000
  Ti  Ti42      1.0  0.02240  0.82473  0.27961  1.0000
  Ti  Ti43      1.0  0.19467  0.86550  0.61447  1.0000
  Ti  Ti44      1.0  0.53863  0.23259  0.73042  1.0000
  Ti  Ti45      1.0  0.11488  0.30784  0.20892  1.0000
  Ti  Ti46      1.0  0.31790  0.95074  0.39844  1.0000
  Ti  Ti47      1.0  0.84969  0.10430  0.75059  1.0000
  Ti  Ti48      1.0  0.97006  0.98033  0.31670  1.0000
  Ti  Ti49      1.0  0.18118  0.87478  0.17202  1.0000
  Ti  Ti50      1.0  0.59210  0.43246  0.07012  1.0000
  Ti  Ti51      1.0  0.02744  0.07525  0.12575  1.0000
  Ti  Ti52      1.0  0.65951  0.34954  0.36046  1.0000
  Ti  Ti53      1.0  0.40123  0.72730  0.55061  1.0000
  Ti  Ti54      1.0  0.87280  0.80334  0.80309  1.0000
  Ti  Ti55      1.0  0.55333  0.98279  0.48150  1.0000
  Ti  Ti56      1.0  0.33630  0.49895  0.02931  1.0000
  Ti  Ti57      1.0  0.39648  0.21239  0.83569  1.0000
  Ti  Ti58      1.0  0.49002  0.55400  0.37903  1.0000
  Ti  Ti59      1.0  0.89121  0.06615  0.96833  1.0000
  Ti  Ti60      1.0  0.98061  0.55030  0.34032  1.0000
  Ti  Ti61      1.0  0.66790  0.62176  0.59153  1.0000
  Ti  Ti62      1.0  0.75123  0.57673  0.94882  1.0000
  Ti  Ti63      1.0  0.76416  0.92732  0.19541  1.0000
  Ti  Ti64      1.0  0.42312  0.03774  0.45512  1.0000
  Ti  Ti65      1.0  0.99268  0.81347  0.15423  1.0000
  Ti  Ti66      1.0  0.68582  0.27935  0.88874  1.0000
  Ti  Ti67      1.0  0.81470  0.74789  0.02196  1.0000
  Ti  Ti68      1.0  0.35074  0.61481  0.48780  1.0000
  Ti  Ti69      1.0  0.75799  0.88879  0.75474  1.0000
  Ti  Ti70      1.0  0.80257  0.71820  0.95677  1.0000
  Ti  Ti71      1.0  0.14410  0.08637  0.28389  1.0000
  Ti  Ti72      1.0  0.80394  0.09342  0.76782  1.0000
  Ti  Ti73      1.0  0.78630  0.21835  0.12654  1.0000
  Ti  Ti74      1.0  0.41950  0.36107  0.46203  1.0000
  Ti  Ti75      1.0  0.47061  0.00142  0.07485  1.0000
  Ti  Ti76      1.0  0.21783  0.00947  0.00036  1.0000
  Ti  Ti77      1.0  0.26141  0.34131  0.61974  1.0000
  Ti  Ti78      1.0  0.17942  0.74657  0.83771  1.0000
  Ti  Ti79      1.0  0.72824  0.66899  0.78934  1.0000
  Ti  Ti80      1.0  0.97343  0.29673  0.49744  1.0000
  Ti  Ti81      1.0  0.35583  0.90045  0.27421  1.0000
  Ti  Ti82      1.0  0.16362  0.24990  0.89621  1.0000
  Ti  Ti83      1.0  0.13340  0.34069  0.66391  1.0000
  Ti  Ti84      1.0  0.96929  0.19377  0.85834  1.0000
  Ti  Ti85      1.0  0.24374  0.05608  0.59646  1.0000
  Ti  Ti86      1.0  0.71895  0.23034  0.83400  1.0000
  Ti  Ti87      1.0  0.09626  0.27873  0.28680  1.0000
  Ti  Ti88      1.0  0.60907  0.37559  0.40593  1.0000
  Ti  Ti89      1.0  0.50412  0.26711  0.17843  1.0000
  Ti  Ti90      1.0  0.04737  0.77410  0.34641  1.0000
  Ti  Ti91      1.0  0.27984  0.48877  0.33197  1.0000
  Ti  Ti92      1.0  0.29143  0.78208  0.56202  1.0000
  Ti  Ti93      1.0  0.05009  0.40198  0.04195  1.0000
  Ti  Ti94      1.0  0.95084  0.97673  0.22166  1.0000
  Ti  Ti95      1.0  0.32808  0.74528  0.07754  1.0000
  Ti  Ti96      1.0  0.01215  0.15280  0.16127  1.0000
  I   I1        1.0  0.86237  0.11276  0.82123  1.0000
  I   I2        1.0  0.03211  0.11114  0.11625  1.0000
  I   I3        1.0  0.16478  0.86622  0.11355  1.0000
  I   I4        1.0  0.39328  0.69921  0.58619  1.0000
  I   I5        1.0  0.86611  0.82197  0.39374  1.0000
  I   I6        1.0  0.90704  0.79881  0.83583  1.0000
  I   I7        1.0  0.10013  0.52768  0.25511  1.0000
  I   I8        1.0  0.31390  0.47840  0.03747  1.0000
  I   I9        1.0  0.44113  0.18418  0.84214  1.0000
  I   I10       1.0  0.48214  0.52234  0.69579  1.0000
  I   I11       1.0  0.24476  0.48768  0.07626  1.0000
  I   I12       1.0  0.45789  0.50406  0.21484  1.0000
  I   I13       1.0  0.70964  0.53906  0.97816  1.0000
  I   I14       1.0  0.73443  0.96729  0.20812  1.0000
  I   I15       1.0  0.68548  0.59938  0.65698  1.0000
  I   I16       1.0  0.51415  0.45855  0.69922  1.0000
  I   I17       1.0  0.66389  0.28969  0.95131  1.0000
  I   I18       1.0  0.36344  0.06345  0.56323  1.0000
  I   I19       1.0  0.16086  0.85093  0.39634  1.0000
  I   I20       1.0  0.19233  0.47565  0.06486  1.0000
  I   I21       1.0  0.10065  0.57886  0.31684  1.0000
  I   I22       1.0  0.21182  0.05893  0.17098  1.0000
  I   I23       1.0  0.14552  0.11180  0.13991  1.0000
  I   I24       1.0  0.83982  0.70803  0.00208  1.0000
  I   I25       1.0  0.40194  0.39565  0.31503  1.0000
  I   I26       1.0  0.46757  0.96723  0.05883  1.0000
  I   I27       1.0  0.75953  0.16308  0.20471  1.0000
  I   I28       1.0  0.33970  0.00653  0.76245  1.0000
  I   I29       1.0  0.21951  0.75084  0.95736  1.0000
  I   I30       1.0  0.28138  0.80549  0.98383  1.0000
  I   I31       1.0  0.99102  0.25664  0.50154  1.0000
  I   I32       1.0  0.34497  0.92675  0.21158  1.0000
  I   I33       1.0  0.76135  0.67529  0.79342  1.0000
  I   I34       1.0  0.12400  0.31351  0.62721  1.0000
  I   I35       1.0  0.88542  0.27961  0.87363  1.0000
  I   I36       1.0  0.58712  0.56317  0.80409  1.0000
  I   I37       1.0  0.20498  0.14036  0.55410  1.0000
  I   I38       1.0  0.53047  0.60607  0.26662  1.0000
  I   I39       1.0  0.25354  0.06138  0.52255  1.0000
  I   I40       1.0  0.52639  0.26335  0.67432  1.0000
  I   I41       1.0  0.08685  0.74546  0.33671  1.0000
  I   I42       1.0  0.41397  0.64909  0.74624  1.0000
  I   I43       1.0  0.51459  0.55841  0.43229  1.0000
  I   I44       1.0  0.50044  0.23984  0.70993  1.0000
  I   I45       1.0  0.12102  0.33453  0.24563  1.0000
  I   I46       1.0  0.36402  0.70980  0.06293  1.0000
  I   I47       1.0  0.85727  0.06809  0.78558  1.0000
  I   I48       1.0  0.96738  0.97725  0.39372  1.0000
  I   I49       1.0  0.15288  0.89548  0.21925  1.0000
  I   I50       1.0  0.01503  0.08095  0.19545  1.0000
  I   I51       1.0  0.98018  0.09130  0.13178  1.0000
  I   I52       1.0  0.99319  0.31717  0.46713  1.0000
  I   I53       1.0  0.40109  0.74988  0.61048  1.0000
  I   I54       1.0  0.84766  0.80121  0.74738  1.0000
  I   I55       1.0  0.58355  0.94865  0.51971  1.0000
  I   I56       1.0  0.11913  0.49913  0.35213  1.0000
  I   I57       1.0  0.36723  0.20158  0.84717  1.0000
  I   I58       1.0  0.53158  0.44497  0.81846  1.0000
  I   I59       1.0  0.92051  0.05989  0.01175  1.0000
  I   I60       1.0  0.98155  0.58374  0.29784  1.0000
  I   I61       1.0  0.77524  0.59511  0.93596  1.0000
  I   I62       1.0  0.76186  0.50442  0.03894  1.0000
  I   I63       1.0  0.76441  0.89108  0.20071  1.0000
  I   I64       1.0  0.46184  0.57745  0.74641  1.0000
  I   I65       1.0  0.98593  0.79625  0.09720  1.0000
  I   I66       1.0  0.65158  0.29264  0.84760  1.0000
  I   I67       1.0  0.39904  0.59655  0.38392  1.0000
  I   I68       1.0  0.18855  0.83588  0.29622  1.0000
  I   I69       1.0  0.75539  0.88540  0.82874  1.0000
  I   I70       1.0  0.77057  0.72633  0.91603  1.0000
  I   I71       1.0  0.12146  0.08879  0.21904  1.0000
  I   I72       1.0  0.80996  0.13173  0.77371  1.0000
  I   I73       1.0  0.81277  0.23341  0.14420  1.0000
  I   I74       1.0  0.68101  0.95834  0.77341  1.0000
  I   I75       1.0  0.71460  0.89162  0.75960  1.0000
  I   I76       1.0  0.22648  0.37569  0.63792  1.0000
  I   I77       1.0  0.26653  0.33527  0.54565  1.0000
  I   I78       1.0  0.30738  0.79610  0.20389  1.0000
  I   I79       1.0  0.24408  0.63402  0.78230  1.0000
  I   I80       1.0  0.63556  0.12601  0.13527  1.0000
  I   I81       1.0  0.32042  0.86182  0.22664  1.0000
  I   I82       1.0  0.14212  0.25060  0.82879  1.0000
  I   I83       1.0  0.06674  0.37445  0.57270  1.0000
  I   I84       1.0  0.91510  0.27844  0.78451  1.0000
  I   I85       1.0  0.25200  0.09611  0.60143  1.0000
  I   I86       1.0  0.70826  0.29969  0.89455  1.0000
  I   I87       1.0  0.53913  0.63306  0.36807  1.0000
  I   I88       1.0  0.40372  0.67616  0.84209  1.0000
  I   I89       1.0  0.57116  0.28259  0.69390  1.0000
  I   I90       1.0  0.04452  0.77420  0.41870  1.0000
  I   I91       1.0  0.30989  0.49522  0.30354  1.0000
  I   I92       1.0  0.28100  0.79247  0.63195  1.0000
  I   I93       1.0  0.55605  0.24769  0.78024  1.0000
  I   I94       1.0  0.00661  0.96778  0.26482  1.0000
  I   I95       1.0  0.33114  0.95136  0.46969  1.0000
  I   I96       1.0  0.99556  0.19292  0.17194  1.0000
  I   I97       1.0  0.23878  0.19629  0.39725  1.0000
  I   I98       1.0  0.25026  0.85216  0.23648  1.0000
  I   I99       1.0  0.06486  0.03855  0.12065  1.0000
  I   I100      1.0  0.99923  0.67848  0.78730  1.0000
  I   I101      1.0  0.69099  0.31379  0.37815  1.0000
  I   I102      1.0  0.39330  0.52094  0.24731  1.0000
  I   I103      1.0  0.54476  0.92834  0.63744  1.0000
  I   I104      1.0  0.54220  0.01851  0.51149  1.0000
  I   I105      1.0  0.45209  0.23461  0.90450  1.0000
  I   I106      1.0  0.03503  0.57740  0.29591  1.0000
  I   I107      1.0  0.47740  0.46427  0.76971  1.0000
  I   I108      1.0  0.98476  0.57232  0.41193  1.0000
  I   I109      1.0  0.63851  0.62714  0.68746  1.0000
  I   I110      1.0  0.77438  0.53037  0.95615  1.0000
  I   I111      1.0  0.80217  0.92304  0.19799  1.0000
  I   I112      1.0  0.39850  0.08552  0.45581  1.0000
  I   I113      1.0  0.00695  0.78111  0.20313  1.0000
  I   I114      1.0  0.26822  0.48745  0.77285  1.0000
  I   I115      1.0  0.83835  0.76459  0.03727  1.0000
  I   I116      1.0  0.79491  0.68770  0.99121  1.0000
  I   I117      1.0  0.35131  0.58389  0.32548  1.0000
  I   I118      1.0  0.74198  0.63448  0.51557  1.0000
  I   I119      1.0  0.82119  0.71059  0.88349  1.0000
  I   I120      1.0  0.77745  0.10059  0.82623  1.0000
  I   I121      1.0  0.76174  0.19077  0.09594  1.0000
  I   I122      1.0  0.41238  0.41466  0.41540  1.0000
  I   I123      1.0  0.44334  0.03695  0.04453  1.0000
  I   I124      1.0  0.21827  0.84630  0.97818  1.0000
  I   I125      1.0  0.34012  0.97257  0.85474  1.0000
  I   I126      1.0  0.23371  0.70869  0.86007  1.0000
  I   I127      1.0  0.26793  0.58409  0.87770  1.0000
  I   I128      1.0  0.93538  0.70370  0.78966  1.0000
  I   I129      1.0  0.36965  0.87155  0.20082  1.0000
  I   I130      1.0  0.94767  0.17293  0.89196  1.0000
  I   I131      1.0  0.20437  0.24607  0.88972  1.0000
  I   I132      1.0  0.16441  0.30055  0.67946  1.0000
  I   I133      1.0  0.56721  0.63673  0.27222  1.0000
  I   I134      1.0  0.84395  0.09803  0.45385  1.0000
  I   I135      1.0  0.68650  0.23145  0.87268  1.0000
  I   I136      1.0  0.02898  0.75024  0.34875  1.0000
  I   I137      1.0  0.63712  0.32921  0.34435  1.0000
  I   I138      1.0  0.47295  0.26257  0.20738  1.0000
  I   I139      1.0  0.28938  0.45443  0.36859  1.0000
  I   I140      1.0  0.26176  0.79298  0.51384  1.0000
  I   I141      1.0  0.01397  0.39882  0.03872  1.0000
  I   I142      1.0  0.95711  0.00629  0.18692  1.0000
  I   I143      1.0  0.35213  0.91296  0.39998  1.0000
  I   I144      1.0  0.97106  0.15967  0.17201  1.0000
  I   I145      1.0  0.25556  0.79378  0.19557  1.0000
  I   I146      1.0  0.03214  0.00833  0.05634  1.0000
  I   I147      1.0  0.30247  0.14955  0.44887  1.0000
  I   I148      1.0  0.59534  0.40298  0.34954  1.0000
  I   I149      1.0  0.45409  0.47242  0.30423  1.0000
  I   I150      1.0  0.85213  0.85645  0.50251  1.0000
  I   I151      1.0  0.58034  0.98923  0.43995  1.0000
  I   I152      1.0  0.12502  0.59054  0.44506  1.0000
  I   I153      1.0  0.37850  0.25422  0.81804  1.0000
  I   I154      1.0  0.17215  0.85760  0.56668  1.0000
  I   I155      1.0  0.24579  0.41495  0.08302  1.0000
  I   I156      1.0  0.98161  0.52788  0.40432  1.0000
  I   I157      1.0  0.65122  0.56979  0.71892  1.0000
  I   I158      1.0  0.76831  0.91901  0.12135  1.0000
  I   I159      1.0  0.66558  0.57926  0.58105  1.0000
  I   I160      1.0  0.46761  0.02230  0.43545  1.0000
  I   I161      1.0  0.22155  0.49835  0.84315  1.0000
  I   I162      1.0  0.36466  0.06332  0.45317  1.0000
  I   I163      1.0  0.39818  0.53877  0.38158  1.0000
  I   I164      1.0  0.30943  0.63639  0.51201  1.0000
  I   I165      1.0  0.07058  0.62110  0.40835  1.0000
  I   I166      1.0  0.69761  0.68100  0.42688  1.0000
  I   I167      1.0  0.16905  0.10184  0.26132  1.0000
  I   I168      1.0  0.91351  0.76326  0.63456  1.0000
  I   I169      1.0  0.42372  0.33929  0.38207  1.0000
  I   I170      1.0  0.45286  0.36311  0.42618  1.0000
  I   I171      1.0  0.82056  0.18474  0.09304  1.0000
  I   I172      1.0  0.25266  0.98908  0.96295  1.0000
  I   I173      1.0  0.18097  0.73630  0.92140  1.0000
  I   I174      1.0  0.26605  0.86739  0.03102  1.0000
  I   I175      1.0  0.60484  0.11345  0.23211  1.0000
  I   I176      1.0  0.28778  0.92337  0.20766  1.0000
  I   I177      1.0  0.72737  0.67494  0.71332  1.0000
  I   I178      1.0  0.13999  0.26087  0.95823  1.0000
  I   I179      1.0  0.11089  0.36651  0.49433  1.0000
  I   I180      1.0  0.94168  0.20707  0.79501  1.0000
  I   I181      1.0  0.22933  0.02894  0.58084  1.0000
  I   I182      1.0  0.71582  0.26876  0.79881  1.0000
  I   I183      1.0  0.13673  0.29711  0.14199  1.0000
  I   I184      1.0  0.63605  0.34543  0.44862  1.0000
  I   I185      1.0  0.52411  0.24222  0.12574  1.0000
  I   I186      1.0  0.02641  0.85952  0.27961  1.0000
  I   I187      1.0  0.31843  0.79629  0.54134  1.0000
  I   I188      1.0  0.54539  0.20065  0.77703  1.0000
  I   I189      1.0  0.07517  0.33750  0.18798  1.0000
  I   I190      1.0  0.30544  0.99122  0.40547  1.0000
  I   I191      1.0  0.63217  0.41038  0.05668  1.0000
  I   I192      1.0  0.96386  0.94839  0.28034  1.0000
  I   I193      1.0  0.17386  0.78356  0.87680  1.0000
  I   I194      1.0  0.57270  0.41026  0.05623  1.0000
  I   I195      1.0  0.29286  0.19374  0.35303  1.0000
  I   I196      1.0  0.97669  0.68295  0.68234  1.0000
  I   I197      1.0  0.47378  0.53321  0.41672  1.0000
  I   I198      1.0  0.81364  0.82641  0.49502  1.0000
  I   I199      1.0  0.53711  0.93737  0.50691  1.0000
  I   I200      1.0  0.37011  0.50166  0.06443  1.0000
  I   I201      1.0  0.43843  0.24599  0.78584  1.0000
  I   I202      1.0  0.86620  0.05785  0.01295  1.0000
  I   I203      1.0  0.77423  0.85737  0.70398  1.0000
  I   I204      1.0  0.93964  0.56978  0.33424  1.0000
  I   I205      1.0  0.72403  0.54660  0.08597  1.0000
  I   I206      1.0  0.04084  0.77548  0.85376  1.0000
  I   I207      1.0  0.62575  0.64539  0.57755  1.0000
  I   I208      1.0  0.53050  0.50170  0.73622  1.0000
  I   I209      1.0  0.25405  0.43139  0.81869  1.0000
  I   I210      1.0  0.69750  0.71145  0.77111  1.0000
  I   I211      1.0  0.77655  0.75088  0.02477  1.0000
  I   I212      1.0  0.22371  0.81334  0.40112  1.0000
  I   I213      1.0  0.79124  0.89507  0.73592  1.0000
  I   I214      1.0  0.76197  0.64250  0.40192  1.0000
  I   I215      1.0  0.11358  0.12240  0.31044  1.0000
  I   I216      1.0  0.91833  0.80935  0.59184  1.0000
  I   I217      1.0  0.41095  0.38886  0.52131  1.0000
  I   I218      1.0  0.51157  0.98759  0.06075  1.0000
  I   I219      1.0  0.77618  0.20745  0.19701  1.0000
  I   I220      1.0  0.24063  0.32028  0.65022  1.0000
  I   I221      1.0  0.24122  0.75754  0.83675  1.0000
  I   I222      1.0  0.18773  0.01580  0.95414  1.0000
  I   I223      1.0  0.66895  0.10549  0.22400  1.0000
  I   I224      1.0  0.31562  0.93334  0.29367  1.0000
  I   I225      1.0  0.20677  0.60479  0.81209  1.0000
  I   I226      1.0  0.14756  0.29242  0.88220  1.0000
  I   I227      1.0  0.09856  0.41242  0.56393  1.0000
  I   I228      1.0  0.99130  0.17562  0.78888  1.0000
  I   I229      1.0  0.20442  0.08764  0.60769  1.0000
  I   I230      1.0  0.87958  0.06507  0.55994  1.0000
  I   I231      1.0  0.59952  0.58210  0.29488  1.0000
  I   I232      1.0  0.98053  0.82048  0.81527  1.0000
  I   I233      1.0  0.59857  0.22549  0.60796  1.0000
  I   I234      1.0  0.05794  0.80973  0.32764  1.0000
  I   I235      1.0  0.22803  0.83545  0.57883  1.0000
  I   I236      1.0  0.05378  0.40474  0.11600  1.0000
  I   I237      1.0  0.25171  0.49072  0.27999  1.0000
  I   I238      1.0  0.29852  0.74524  0.03530  1.0000
  I   I239      1.0  0.04567  0.15027  0.12155  1.0000
  I   I240      1.0  0.91109  0.98587  0.23347  1.0000
  I   I241      1.0  0.23910  0.84063  0.13045  1.0000
  I   I242      1.0  0.97906  0.05217  0.02543  1.0000
  I   I243      1.0  0.27350  0.14098  0.35335  1.0000
  I   I244      1.0  0.57264  0.37902  0.42843  1.0000
  I   I245      1.0  0.43614  0.71531  0.51795  1.0000
  I   I246      1.0  0.87941  0.80164  0.51121  1.0000
  I   I247      1.0  0.59217  0.90015  0.58115  1.0000
  I   I248      1.0  0.08268  0.57337  0.45522  1.0000
  I   I249      1.0  0.41045  0.22183  0.91273  1.0000
  I   I250      1.0  0.87553  0.10645  0.94330  1.0000
  I   I251      1.0  0.22810  0.46646  0.15714  1.0000
  I   I252      1.0  0.00858  0.61272  0.36481  1.0000
  I   I253      1.0  0.71392  0.59184  0.99842  1.0000
  I   I254      1.0  0.02781  0.79773  0.73476  1.0000
  I   I255      1.0  0.61319  0.58839  0.62914  1.0000
  I   I256      1.0  0.95441  0.83908  0.16709  1.0000
  I   I257      1.0  0.23921  0.46199  0.72105  1.0000
  I   I258      1.0  0.41503  0.02985  0.38763  1.0000
  I   I259      1.0  0.80919  0.74520  0.10275  1.0000
  I   I260      1.0  0.33715  0.61799  0.40629  1.0000
  I   I261      1.0  0.12738  0.53547  0.39868  1.0000
  I   I262      1.0  0.71648  0.61443  0.42796  1.0000
  I   I263      1.0  0.15685  0.06010  0.12055  1.0000
  I   I264      1.0  0.97078  0.76991  0.65324  1.0000
  I   I265      1.0  0.37285  0.39704  0.41688  1.0000
  I   I266      1.0  0.70314  0.93830  0.85788  1.0000
  I   I267      1.0  0.76052  0.24348  0.06908  1.0000
  I   I268      1.0  0.37907  0.99114  0.86770  1.0000
  I   I269      1.0  0.19138  0.74910  0.77048  1.0000
  I   I270      1.0  0.20813  0.98574  0.04696  1.0000
  I   I271      1.0  0.62919  0.16494  0.24651  1.0000
  I   I272      1.0  0.39150  0.89859  0.30186  1.0000
  I   I273      1.0  0.27642  0.57045  0.76450  1.0000
  I   I274      1.0  0.61710  0.49808  0.78389  1.0000
  I   I275      1.0  0.14795  0.34039  0.58554  1.0000
  I   I276      1.0  0.95314  0.23274  0.87781  1.0000
  I   I277      1.0  0.17428  0.20813  0.90152  1.0000
  I   I278      1.0  0.87847  0.12966  0.50469  1.0000
  I   I279      1.0  0.14599  0.27782  0.24674  1.0000
  I   I280      1.0  0.67891  0.37354  0.35253  1.0000
  I   I281      1.0  0.56152  0.28626  0.60056  1.0000
  I   I282      1.0  0.98898  0.83602  0.23893  1.0000
  I   I283      1.0  0.18792  0.90474  0.60750  1.0000
  I   I284      1.0  0.06111  0.37437  0.97862  1.0000
  I   I285      1.0  0.07142  0.31296  0.32351  1.0000
  I   I286      1.0  0.34142  0.77379  0.07814  1.0000
  I   I287      1.0  0.83152  0.08853  0.69169  1.0000
  I   I288      1.0  0.95940  0.94948  0.16232  1.0000
  I   I289      1.0  0.19762  0.89514  0.13006  1.0000
  I   I290      1.0  0.59571  0.43944  0.14229  1.0000
  I   I291      1.0  0.01912  0.07347  0.04741  1.0000
  I   I292      1.0  0.66090  0.34386  0.28342  1.0000
  I   I293      1.0  0.37483  0.75910  0.51287  1.0000
  I   I294      1.0  0.85456  0.84402  0.83114  1.0000
  I   I295      1.0  0.54063  0.97829  0.58475  1.0000
  I   I296      1.0  0.35127  0.48029  0.96208  1.0000
  I   I297      1.0  0.39696  0.27842  0.88222  1.0000
  I   I298      1.0  0.51949  0.54047  0.32518  1.0000
  I   I299      1.0  0.50886  0.56242  0.69025  1.0000
  I   I300      1.0  0.00624  0.52364  0.29509  1.0000
  I   I301      1.0  0.67642  0.61946  0.51828  1.0000
  I   I302      1.0  0.76116  0.57248  0.03935  1.0000
  I   I303      1.0  0.45079  0.68043  0.73779  1.0000
  I   I304      1.0  0.42464  0.05816  0.54412  1.0000
  I   I305      1.0  0.48447  0.51729  0.80786  1.0000
  I   I306      1.0  0.75634  0.21196  0.81593  1.0000
  I   I307      1.0  0.35865  0.60086  0.55502  1.0000
  I   I308      1.0  0.20732  0.87649  0.38696  1.0000
  I   I309      1.0  0.15434  0.51953  0.29460  1.0000
  I   I310      1.0  0.21095  0.85898  0.68644  1.0000
  I   I311      1.0  0.15849  0.06728  0.34981  1.0000
  I   I312      1.0  0.87918  0.10516  0.71210  1.0000
  I   I313      1.0  0.72429  0.24011  0.16795  1.0000
  I   I314      1.0  0.38932  0.34940  0.46549  1.0000
  I   I315      1.0  0.46689  0.01597  0.14451  1.0000
  I   I316      1.0  0.20428  0.04686  0.02413  1.0000
  I   I317      1.0  0.39034  0.94703  0.77390  1.0000
  I   I318      1.0  0.14132  0.76528  0.81291  1.0000
  I   I319      1.0  0.71126  0.68199  0.86054  1.0000
  I   I320      1.0  0.96016  0.74039  0.74137  1.0000
  I   I321      1.0  0.33003  0.89174  0.12989  1.0000
  I   I322      1.0  0.57401  0.52184  0.87136  1.0000
  I   I323      1.0  0.13253  0.34872  0.73712  1.0000
  I   I324      1.0  0.00692  0.18691  0.89420  1.0000
  I   I325      1.0  0.26715  0.04125  0.65433  1.0000
  I   I326      1.0  0.72438  0.23797  0.91297  1.0000
  I   I327      1.0  0.12758  0.24807  0.32171  1.0000
  I   I328      1.0  0.37998  0.71634  0.75438  1.0000
  I   I329      1.0  0.51802  0.27475  0.24429  1.0000
  I   I330      1.0  0.05313  0.79097  0.23207  1.0000
  I   I331      1.0  0.07173  0.26072  0.30289  1.0000
  I   I332      1.0  0.46155  0.58799  0.34775  1.0000
  I   I333      1.0  0.57634  0.20689  0.69019  1.0000
  I   I334      1.0  0.97788  0.01472  0.31270  1.0000
  I   I335      1.0  0.28565  0.94367  0.42206  1.0000
  I   I336      1.0  0.02689  0.14007  0.23200  1.0000
  I   I337      1.0  0.20271  0.83212  0.18705  1.0000
  I   I338      1.0  0.57201  0.47310  0.05214  1.0000
  I   I339      1.0  0.99997  0.02731  0.13065  1.0000
  I   I340      1.0  0.94609  0.29601  0.45065  1.0000
  I   I341      1.0  0.43790  0.46048  0.20111  1.0000
  I   I342      1.0  0.85763  0.78566  0.85181  1.0000
  I   I343      1.0  0.52321  0.99409  0.42246  1.0000
  I   I344      1.0  0.30600  0.53770  0.03160  1.0000
  I   I345      1.0  0.40841  0.19864  0.76843  1.0000
  I   I346      1.0  0.81038  0.75224  0.94435  1.0000
  I   I347      1.0  0.90731  0.03608  0.91947  1.0000
  I   I348      1.0  0.04385  0.54051  0.35583  1.0000
  I   I349      1.0  0.69189  0.63988  0.60530  1.0000
  I   I350      1.0  0.72757  0.57976  0.89048  1.0000
  I   I351      1.0  0.01418  0.75173  0.77646  1.0000
  I   I352      1.0  0.41894  0.01034  0.49789  1.0000
  I   I353      1.0  0.99850  0.84052  0.11645  1.0000
  I   I354      1.0  0.70445  0.22390  0.76929  1.0000
  I   I355      1.0  0.38579  0.57558  0.46252  1.0000
  I   I356      1.0  0.36795  0.64264  0.47973  1.0000
  I   I357      1.0  0.75833  0.93182  0.80436  1.0000
  I   I358      1.0  0.91382  0.80602  0.71803  1.0000
  I   I359      1.0  0.16927  0.04928  0.23908  1.0000
  I   I360      1.0  0.80449  0.05689  0.74618  1.0000
  I   I361      1.0  0.71288  0.18859  0.13576  1.0000
  I   I362      1.0  0.44303  0.32945  0.50516  1.0000
  I   I363      1.0  0.72995  0.91866  0.71519  1.0000
  I   I364      1.0  0.26371  0.85525  0.92381  1.0000
  I   I365      1.0  0.29576  0.32687  0.66322  1.0000
  I   I366      1.0  0.17494  0.71029  0.82117  1.0000
  I   I367      1.0  0.73776  0.62858  0.78169  1.0000
  I   I368      1.0  0.96117  0.30662  0.56380  1.0000
  I   I369      1.0  0.37265  0.86132  0.31909  1.0000
  I   I370      1.0  0.63184  0.52547  0.88664  1.0000
  I   I371      1.0  0.10126  0.38014  0.65358  1.0000
  I   I372      1.0  0.88583  0.23746  0.80742  1.0000
  I   I373      1.0  0.19556  0.10252  0.49297  1.0000
  I   I374      1.0  0.83601  0.12630  0.55783  1.0000
  I   I375      1.0  0.10287  0.27728  0.20664  1.0000
  I   I376      1.0  0.61464  0.40345  0.43834  1.0000
  I   I377      1.0  0.50101  0.29921  0.13030  1.0000
  I   I378      1.0  0.00479  0.80866  0.32593  1.0000
  I   I379      1.0  0.25577  0.51910  0.38234  1.0000
  I   I380      1.0  0.30741  0.74259  0.58559  1.0000
  I   I381      1.0  0.05029  0.43742  0.02753  1.0000
  I   I382      1.0  0.93168  0.00051  0.29702  1.0000
  I   I383      1.0  0.30688  0.75422  0.14009  1.0000
  I   I384      1.0  0.77780  0.11026  0.71021  1.0000
