data_image0
_chemical_formula_structural       Ti96I384
_chemical_formula_sum              "Ti96 I384"
_cell_length_a       75.4234
_cell_length_b       75.3636
_cell_length_c       36.8974
_cell_angle_alpha    88.7757
_cell_angle_beta     88.7757
_cell_angle_gamma    62.1586

_space_group_name_H-M_alt    "P 1"
_space_group_IT_number       1

loop_
  _space_group_symop_operation_xyz
  'x, y, z'

loop_
  _atom_site_type_symbol
  _atom_site_label
  _atom_site_symmetry_multiplicity
  _atom_site_fract_x
  _atom_site_fract_y
  _atom_site_fract_z
  _atom_site_occupancy
  Ti  Ti1       1.0  0.68652  0.23201  0.85213  1.0000
  Ti  Ti2       1.0  0.46383  0.71892  0.58749  1.0000
  Ti  Ti3       1.0  0.12160  0.04206  0.34326  1.0000
  Ti  Ti4       1.0  0.15000  0.17498  0.07422  1.0000
  Ti  Ti5       1.0  0.23605  0.07339  0.93823  1.0000
  Ti  Ti6       1.0  0.40867  0.54219  0.28515  1.0000
  Ti  Ti7       1.0  0.67126  0.03007  0.05324  1.0000
  Ti  Ti8       1.0  0.33318  0.74151  0.25469  1.0000
  Ti  Ti9       1.0  0.17484  0.47692  0.60969  1.0000
  Ti  Ti10      1.0  0.54149  0.73934  0.36570  1.0000
  Ti  Ti11      1.0  0.32410  0.94962  0.79700  1.0000
  Ti  Ti12      1.0  0.95028  0.10664  0.26775  1.0000
  Ti  Ti13      1.0  0.75768  0.72708  0.49962  1.0000
  Ti  Ti14      1.0  0.18347  0.19351  0.08663  1.0000
  Ti  Ti15      1.0  0.83212  0.46699  0.74762  1.0000
  Ti  Ti16      1.0  0.26979  0.61425  0.37428  1.0000
  Ti  Ti17      1.0  0.14720  0.86144  0.61191  1.0000
  Ti  Ti18      1.0  0.38587  0.08263  0.39554  1.0000
  Ti  Ti19      1.0  0.83999  0.19491  0.83481  1.0000
  Ti  Ti20      1.0  0.12362  0.53254  0.95514  1.0000
  Ti  Ti21      1.0  0.29717  0.75844  0.16364  1.0000
  Ti  Ti22      1.0  0.73488  0.35443  0.74474  1.0000
  Ti  Ti23      1.0  0.35190  0.60706  0.91669  1.0000
  Ti  Ti24      1.0  0.74258  0.28464  0.39573  1.0000
  Ti  Ti25      1.0  0.72045  0.53607  0.33376  1.0000
  Ti  Ti26      1.0  0.98673  0.85580  0.80948  1.0000
  Ti  Ti27      1.0  0.41986  0.54674  0.03447  1.0000
  Ti  Ti28      1.0  0.51763  0.15107  0.84435  1.0000
  Ti  Ti29      1.0  0.18784  0.99664  0.14029  1.0000
  Ti  Ti30      1.0  0.22355  0.85139  0.09587  1.0000
  Ti  Ti31      1.0  0.61539  0.34024  0.12248  1.0000
  Ti  Ti32      1.0  0.53326  0.75543  0.10183  1.0000
  Ti  Ti33      1.0  0.61513  0.27423  0.73509  1.0000
  Ti  Ti34      1.0  0.87149  0.55472  0.14167  1.0000
  Ti  Ti35      1.0  0.61921  0.79530  0.14250  1.0000
  Ti  Ti36      1.0  0.28770  0.21476  0.51567  1.0000
  Ti  Ti37      1.0  0.97309  0.53265  0.72921  1.0000
  Ti  Ti38      1.0  0.23648  0.43461  0.42083  1.0000
  Ti  Ti39      1.0  0.94404  0.25340  0.74047  1.0000
  Ti  Ti40      1.0  0.57451  0.76158  0.29778  1.0000
  Ti  Ti41      1.0  0.88001  0.55002  0.29153  1.0000
  Ti  Ti42      1.0  0.82079  0.76972  0.29898  1.0000
  Ti  Ti43      1.0  0.02342  0.84659  0.54872  1.0000
  Ti  Ti44      1.0  0.83229  0.32471  0.31012  1.0000
  Ti  Ti45      1.0  0.58186  0.02107  0.22386  1.0000
  Ti  Ti46      1.0  0.80868  0.84603  0.04586  1.0000
  Ti  Ti47      1.0  0.11115  0.87466  0.82088  1.0000
  Ti  Ti48      1.0  0.99415  0.09270  0.66115  1.0000
  Ti  Ti49      1.0  0.02217  0.88290  0.46611  1.0000
  Ti  Ti50      1.0  0.07439  0.21495  0.29720  1.0000
  Ti  Ti51      1.0  0.49758  0.64899  0.56727  1.0000
  Ti  Ti52      1.0  0.48678  0.38261  0.86557  1.0000
  Ti  Ti53      1.0  0.26613  0.80255  0.72580  1.0000
  Ti  Ti54      1.0  0.40535  0.92415  0.15904  1.0000
  Ti  Ti55      1.0  0.50709  0.72524  0.15633  1.0000
  Ti  Ti56      1.0  0.68428  0.83127  0.93590  1.0000
  Ti  Ti57      1.0  0.16375  0.46331  0.67938  1.0000
  Ti  Ti58      1.0  0.36305  0.01574  0.35292  1.0000
  Ti  Ti59      1.0  0.42936  0.58017  0.56682  1.0000
  Ti  Ti60      1.0  0.99095  0.18717  0.33055  1.0000
  Ti  Ti61      1.0  0.73762  0.85321  0.69038  1.0000
  Ti  Ti62      1.0  0.75132  0.71615  0.57653  1.0000
  Ti  Ti63      1.0  0.15777  0.57170  0.88288  1.0000
  Ti  Ti64      1.0  0.43362  0.08051  0.37973  1.0000
  Ti  Ti65      1.0  0.91993  0.96567  0.34036  1.0000
  Ti  Ti66      1.0  0.34819  0.23409  0.19601  1.0000
  Ti  Ti67      1.0  0.22576  0.15217  0.29232  1.0000
  Ti  Ti68      1.0  0.51894  0.25053  0.18280  1.0000
  Ti  Ti69      1.0  0.93252  0.85364  0.81802  1.0000
  Ti  Ti70      1.0  0.21020  0.10725  0.33107  1.0000
  Ti  Ti71      1.0  0.99520  0.70623  0.08867  1.0000
  Ti  Ti72      1.0  0.11760  0.89578  0.92264  1.0000
  Ti  Ti73      1.0  0.44212  0.57474  0.93644  1.0000
  Ti  Ti74      1.0  0.73187  0.52937  0.24531  1.0000
  Ti  Ti75      1.0  0.38537  0.28288  0.00322  1.0000
  Ti  Ti76      1.0  0.40454  0.03727  0.76081  1.0000
  Ti  Ti77      1.0  0.85288  0.41174  0.76338  1.0000
  Ti  Ti78      1.0  0.19850  0.05182  0.14631  1.0000
  Ti  Ti79      1.0  0.33165  0.91110  0.57319  1.0000
  Ti  Ti80      1.0  0.44414  0.96926  0.91487  1.0000
  Ti  Ti81      1.0  0.95144  0.65974  0.06219  1.0000
  Ti  Ti82      1.0  0.73406  0.43139  0.52646  1.0000
  Ti  Ti83      1.0  0.10243  0.39621  0.55126  1.0000
  Ti  Ti84      1.0  0.35010  0.21697  0.52119  1.0000
  Ti  Ti85      1.0  0.97938  0.49041  0.73173  1.0000
  Ti  Ti86      1.0  0.73568  0.01921  0.12341  1.0000
  Ti  Ti87      1.0  0.57438  0.03011  0.11736  1.0000
  Ti  Ti88      1.0  0.42068  0.34626  0.86063  1.0000
  Ti  Ti89      1.0  0.23659  0.48956  0.10894  1.0000
  Ti  Ti90      1.0  0.96878  0.49411  0.09704  1.0000
  Ti  Ti91      1.0  0.02580  0.98699  0.30632  1.0000
  Ti  Ti92      1.0  0.60769  0.32737  0.42956  1.0000
  Ti  Ti93      1.0  0.51873  0.55214  0.50386  1.0000
  Ti  Ti94      1.0  0.97253  0.10752  0.73212  1.0000
  Ti  Ti95      1.0  0.04521  0.27510  0.37498  1.0000
  Ti  Ti96      1.0  0.76444  0.32023  0.81080  1.0000
  I   I1        1.0  0.14041  0.87704  0.86209  1.0000
  I   I2        1.0  0.43713  0.71827  0.63480  1.0000
  I   I3        1.0  0.03536  0.83787  0.47113  1.0000
  I   I4        1.0  0.25161  0.80002  0.65971  1.0000
  I   I5        1.0  0.40015  0.57556  0.26024  1.0000
  I   I6        1.0  0.37303  0.94358  0.12036  1.0000
  I   I7        1.0  0.29661  0.77068  0.23833  1.0000
  I   I8        1.0  0.68761  0.86150  0.91065  1.0000
  I   I9        1.0  0.20261  0.46235  0.66179  1.0000
  I   I10       1.0  0.56988  0.70990  0.41080  1.0000
  I   I11       1.0  0.29636  0.94681  0.83423  1.0000
  I   I12       1.0  0.24733  0.03719  0.96311  1.0000
  I   I13       1.0  0.72141  0.75624  0.56263  1.0000
  I   I14       1.0  0.13482  0.56219  0.94151  1.0000
  I   I15       1.0  0.84258  0.41767  0.83450  1.0000
  I   I16       1.0  0.56688  0.75967  0.37442  1.0000
  I   I17       1.0  0.33884  0.25165  0.13373  1.0000
  I   I18       1.0  0.42626  0.05155  0.36087  1.0000
  I   I19       1.0  0.15680  0.50715  0.97605  1.0000
  I   I20       1.0  0.33526  0.97764  0.81650  1.0000
  I   I21       1.0  0.35603  0.71459  0.31107  1.0000
  I   I22       1.0  0.32106  0.63092  0.88138  1.0000
  I   I23       1.0  0.98092  0.74357  0.04848  1.0000
  I   I24       1.0  0.20176  0.14385  0.36456  1.0000
  I   I25       1.0  0.73159  0.54791  0.39002  1.0000
  I   I26       1.0  0.41359  0.24650  0.99918  1.0000
  I   I27       1.0  0.44320  0.53901  0.09583  1.0000
  I   I28       1.0  0.54596  0.14653  0.88491  1.0000
  I   I29       1.0  0.22396  0.06632  0.16242  1.0000
  I   I30       1.0  0.19576  0.89060  0.08211  1.0000
  I   I31       1.0  0.42069  0.96850  0.86387  1.0000
  I   I32       1.0  0.94034  0.66234  0.12753  1.0000
  I   I33       1.0  0.36865  0.89972  0.59794  1.0000
  I   I34       1.0  0.65481  0.76700  0.12994  1.0000
  I   I35       1.0  0.37077  0.20455  0.46085  1.0000
  I   I36       1.0  0.83248  0.57641  0.14453  1.0000
  I   I37       1.0  0.97942  0.48147  0.65861  1.0000
  I   I38       1.0  0.93638  0.27643  0.68421  1.0000
  I   I39       1.0  0.01575  0.45953  0.74383  1.0000
  I   I40       1.0  0.85247  0.33858  0.26778  1.0000
  I   I41       1.0  0.98787  0.47189  0.15230  1.0000
  I   I42       1.0  0.56027  0.79249  0.26022  1.0000
  I   I43       1.0  0.32955  0.02001  0.31872  1.0000
  I   I44       1.0  0.86302  0.31149  0.35658  1.0000
  I   I45       1.0  0.60420  0.03037  0.16334  1.0000
  I   I46       1.0  0.04522  0.30953  0.39956  1.0000
  I   I47       1.0  0.11317  0.88074  0.75173  1.0000
  I   I48       1.0  0.95225  0.12935  0.67753  1.0000
  I   I49       1.0  0.05478  0.83430  0.57969  1.0000
  I   I50       1.0  0.46319  0.68569  0.55158  1.0000
  I   I51       1.0  0.44347  0.74055  0.53331  1.0000
  I   I52       1.0  0.45529  0.93666  0.95658  1.0000
  I   I53       1.0  0.30300  0.77580  0.71956  1.0000
  I   I54       1.0  0.44272  0.92089  0.14282  1.0000
  I   I55       1.0  0.71676  0.01722  0.05300  1.0000
  I   I56       1.0  0.31504  0.72192  0.19147  1.0000
  I   I57       1.0  0.05199  0.25964  0.44300  1.0000
  I   I58       1.0  0.56319  0.71914  0.31090  1.0000
  I   I59       1.0  0.42205  0.60212  0.62281  1.0000
  I   I60       1.0  0.99138  0.19638  0.26014  1.0000
  I   I61       1.0  0.78498  0.68887  0.50017  1.0000
  I   I62       1.0  0.76716  0.67364  0.57802  1.0000
  I   I63       1.0  0.17647  0.57862  0.93573  1.0000
  I   I64       1.0  0.29569  0.58812  0.42367  1.0000
  I   I65       1.0  0.94644  0.93939  0.30000  1.0000
  I   I66       1.0  0.33149  0.21066  0.21536  1.0000
  I   I67       1.0  0.81139  0.20718  0.88622  1.0000
  I   I68       1.0  0.10074  0.54514  0.01363  1.0000
  I   I69       1.0  0.91553  0.83752  0.86300  1.0000
  I   I70       1.0  0.19846  0.13174  0.26602  1.0000
  I   I71       1.0  0.36562  0.61739  0.85157  1.0000
  I   I72       1.0  0.10505  0.87124  0.94967  1.0000
  I   I73       1.0  0.40916  0.56279  0.95934  1.0000
  I   I74       1.0  0.99842  0.86992  0.86625  1.0000
  I   I75       1.0  0.97096  0.89182  0.77353  1.0000
  I   I76       1.0  0.88685  0.38075  0.76521  1.0000
  I   I77       1.0  0.79870  0.49021  0.78491  1.0000
  I   I78       1.0  0.69248  0.24118  0.78862  1.0000
  I   I79       1.0  0.60709  0.30299  0.68977  1.0000
  I   I80       1.0  0.64837  0.34227  0.10525  1.0000
  I   I81       1.0  0.57005  0.74399  0.07925  1.0000
  I   I82       1.0  0.73947  0.39547  0.50332  1.0000
  I   I83       1.0  0.12211  0.35664  0.57237  1.0000
  I   I84       1.0  0.33498  0.25890  0.51894  1.0000
  I   I85       1.0  0.95710  0.54753  0.79173  1.0000
  I   I86       1.0  0.38527  0.21368  0.20214  1.0000
  I   I87       1.0  0.91799  0.25041  0.78343  1.0000
  I   I88       1.0  0.51716  0.76748  0.41087  1.0000
  I   I89       1.0  0.84884  0.58284  0.27773  1.0000
  I   I90       1.0  0.94984  0.53442  0.12161  1.0000
  I   I91       1.0  0.06284  0.97155  0.32287  1.0000
  I   I92       1.0  0.61083  0.31951  0.49460  1.0000
  I   I93       1.0  0.81187  0.30479  0.31369  1.0000
  I   I94       1.0  0.00412  0.12028  0.68436  1.0000
  I   I95       1.0  0.81823  0.81251  0.01354  1.0000
  I   I96       1.0  0.76524  0.35551  0.80878  1.0000
  I   I97       1.0  0.15602  0.01485  0.33952  1.0000
  I   I98       1.0  0.66279  0.24737  0.90684  1.0000
  I   I99       1.0  0.50413  0.62398  0.51231  1.0000
  I   I100      1.0  0.12972  0.16480  0.03088  1.0000
  I   I101      1.0  0.40432  0.38094  0.82723  1.0000
  I   I102      1.0  0.20742  0.09242  0.98998  1.0000
  I   I103      1.0  0.69284  0.04441  0.13871  1.0000
  I   I104      1.0  0.50869  0.73726  0.07730  1.0000
  I   I105      1.0  0.13922  0.46541  0.61571  1.0000
  I   I106      1.0  0.93999  0.14256  0.29981  1.0000
  I   I107      1.0  0.53547  0.76902  0.30369  1.0000
  I   I108      1.0  0.98700  0.09484  0.26730  1.0000
  I   I109      1.0  0.87513  0.43152  0.73405  1.0000
  I   I110      1.0  0.76542  0.75693  0.52279  1.0000
  I   I111      1.0  0.17992  0.57402  0.83070  1.0000
  I   I112      1.0  0.44463  0.09178  0.32236  1.0000
  I   I113      1.0  0.90828  0.00557  0.33181  1.0000
  I   I114      1.0  0.13562  0.83840  0.64217  1.0000
  I   I115      1.0  0.24865  0.14402  0.35434  1.0000
  I   I116      1.0  0.24560  0.15106  0.22418  1.0000
  I   I117      1.0  0.48592  0.27075  0.14757  1.0000
  I   I118      1.0  0.71773  0.34506  0.81081  1.0000
  I   I119      1.0  0.22967  0.08471  0.38983  1.0000
  I   I120      1.0  0.09692  0.93377  0.93410  1.0000
  I   I121      1.0  0.47361  0.56666  0.89837  1.0000
  I   I122      1.0  0.68320  0.55651  0.34153  1.0000
  I   I123      1.0  0.39560  0.30837  0.97186  1.0000
  I   I124      1.0  0.25353  0.85986  0.08742  1.0000
  I   I125      1.0  0.43227  0.03751  0.71271  1.0000
  I   I126      1.0  0.17271  0.08932  0.12616  1.0000
  I   I127      1.0  0.61064  0.28842  0.79706  1.0000
  I   I128      1.0  0.17646  0.19257  0.16362  1.0000
  I   I129      1.0  0.92497  0.64890  0.03575  1.0000
  I   I130      1.0  0.33519  0.19182  0.55195  1.0000
  I   I131      1.0  0.76074  0.44459  0.52590  1.0000
  I   I132      1.0  0.59562  0.78220  0.12302  1.0000
  I   I133      1.0  0.97688  0.24926  0.76054  1.0000
  I   I134      1.0  0.23955  0.47084  0.40294  1.0000
  I   I135      1.0  0.33585  0.26096  0.25124  1.0000
  I   I136      1.0  0.82901  0.79351  0.26086  1.0000
  I   I137      1.0  0.45031  0.38607  0.86796  1.0000
  I   I138      1.0  0.20933  0.51841  0.14313  1.0000
  I   I139      1.0  0.99476  0.98741  0.34768  1.0000
  I   I140      1.0  0.63726  0.29813  0.39153  1.0000
  I   I141      1.0  0.49783  0.53172  0.52821  1.0000
  I   I142      1.0  0.95114  0.09140  0.76104  1.0000
  I   I143      1.0  0.10625  0.01365  0.35349  1.0000
  I   I144      1.0  0.75916  0.35889  0.69476  1.0000
  I   I145      1.0  0.71710  0.23412  0.88626  1.0000
  I   I146      1.0  0.46881  0.74858  0.61424  1.0000
  I   I147      1.0  0.12297  0.07521  0.34092  1.0000
  I   I148      1.0  0.51278  0.35246  0.89588  1.0000
  I   I149      1.0  0.22435  0.07121  0.87776  1.0000
  I   I150      1.0  0.37599  0.54325  0.30909  1.0000
  I   I151      1.0  0.51029  0.78318  0.05870  1.0000
  I   I152      1.0  0.33043  0.77537  0.28317  1.0000
  I   I153      1.0  0.14302  0.50877  0.63088  1.0000
  I   I154      1.0  0.02759  0.88114  0.53231  1.0000
  I   I155      1.0  0.31544  0.94961  0.72794  1.0000
  I   I156      1.0  0.99592  0.15175  0.31952  1.0000
  I   I157      1.0  0.81913  0.44205  0.72073  1.0000
  I   I158      1.0  0.12439  0.59895  0.85024  1.0000
  I   I159      1.0  0.73838  0.81862  0.72237  1.0000
  I   I160      1.0  0.46898  0.06145  0.42213  1.0000
  I   I161      1.0  0.14299  0.85938  0.54214  1.0000
  I   I162      1.0  0.41795  0.06458  0.44076  1.0000
  I   I163      1.0  0.84405  0.16432  0.80070  1.0000
  I   I164      1.0  0.53268  0.21204  0.15917  1.0000
  I   I165      1.0  0.25893  0.77319  0.15392  1.0000
  I   I166      1.0  0.80164  0.29261  0.79853  1.0000
  I   I167      1.0  0.35145  0.57255  0.93475  1.0000
  I   I168      1.0  0.73947  0.31926  0.39759  1.0000
  I   I169      1.0  0.70872  0.51125  0.25599  1.0000
  I   I170      1.0  0.70067  0.55760  0.21099  1.0000
  I   I171      1.0  0.41663  0.51470  0.03261  1.0000
  I   I172      1.0  0.43351  0.99987  0.78088  1.0000
  I   I173      1.0  0.22374  0.03651  0.08656  1.0000
  I   I174      1.0  0.21897  0.84325  0.15949  1.0000
  I   I175      1.0  0.60373  0.36987  0.17397  1.0000
  I   I176      1.0  0.55151  0.70852  0.12645  1.0000
  I   I177      1.0  0.30734  0.89646  0.56028  1.0000
  I   I178      1.0  0.70818  0.45940  0.57393  1.0000
  I   I179      1.0  0.12857  0.40956  0.56556  1.0000
  I   I180      1.0  0.30768  0.22446  0.47022  1.0000
  I   I181      1.0  0.01105  0.50921  0.73358  1.0000
  I   I182      1.0  0.66258  0.06512  0.03240  1.0000
  I   I183      1.0  0.53364  0.04910  0.10260  1.0000
  I   I184      1.0  0.41470  0.32814  0.81027  1.0000
  I   I185      1.0  0.27072  0.46081  0.12588  1.0000
  I   I186      1.0  0.81105  0.77317  0.36537  1.0000
  I   I187      1.0  0.57282  0.32847  0.41995  1.0000
  I   I188      1.0  0.80275  0.35833  0.33708  1.0000
  I   I189      1.0  0.55023  0.05187  0.18513  1.0000
  I   I190      1.0  0.77366  0.86336  0.01344  1.0000
  I   I191      1.0  0.09636  0.22029  0.25435  1.0000
  I   I192      1.0  0.12478  0.03874  0.26902  1.0000
  I   I193      1.0  0.19475  0.96202  0.17194  1.0000
  I   I194      1.0  0.05361  0.21416  0.36326  1.0000
  I   I195      1.0  0.08384  0.05496  0.38168  1.0000
  I   I196      1.0  0.12645  0.17318  0.12288  1.0000
  I   I197      1.0  0.35518  0.04624  0.31004  1.0000
  I   I198      1.0  0.41312  0.52356  0.22281  1.0000
  I   I199      1.0  0.54348  0.78014  0.14023  1.0000
  I   I200      1.0  0.64665  0.84986  0.97099  1.0000
  I   I201      1.0  0.18706  0.49140  0.55630  1.0000
  I   I202      1.0  0.39581  0.59263  0.53142  1.0000
  I   I203      1.0  0.97098  0.83605  0.84229  1.0000
  I   I204      1.0  0.94869  0.08022  0.30815  1.0000
  I   I205      1.0  0.75953  0.73780  0.42914  1.0000
  I   I206      1.0  0.17180  0.22868  0.10847  1.0000
  I   I207      1.0  0.82973  0.39250  0.76654  1.0000
  I   I208      1.0  0.27549  0.64565  0.37405  1.0000
  I   I209      1.0  0.18559  0.85008  0.61980  1.0000
  I   I210      1.0  0.31818  0.92853  0.63245  1.0000
  I   I211      1.0  0.17367  0.11252  0.34562  1.0000
  I   I212      1.0  0.09873  0.53775  0.90463  1.0000
  I   I213      1.0  0.90683  0.88971  0.81279  1.0000
  I   I214      1.0  0.70522  0.35597  0.69415  1.0000
  I   I215      1.0  0.35316  0.62072  0.97817  1.0000
  I   I216      1.0  0.52342  0.56165  0.43373  1.0000
  I   I217      1.0  0.72389  0.50174  0.35511  1.0000
  I   I218      1.0  0.38028  0.28010  0.07229  1.0000
  I   I219      1.0  0.44487  0.59700  0.98822  1.0000
  I   I220      1.0  0.83353  0.49776  0.71616  1.0000
  I   I221      1.0  0.20760  0.01141  0.17446  1.0000
  I   I222      1.0  0.39376  0.05600  0.82063  1.0000
  I   I223      1.0  0.59523  0.36107  0.06572  1.0000
  I   I224      1.0  0.46526  0.74645  0.15553  1.0000
  I   I225      1.0  0.58506  0.26581  0.73066  1.0000
  I   I226      1.0  0.73013  0.43384  0.45400  1.0000
  I   I227      1.0  0.61842  0.82151  0.09891  1.0000
  I   I228      1.0  0.28243  0.18611  0.49493  1.0000
  I   I229      1.0  0.12064  0.89720  0.64096  1.0000
  I   I230      1.0  0.20707  0.45936  0.46542  1.0000
  I   I231      1.0  0.94586  0.22471  0.69672  1.0000
  I   I232      1.0  0.21753  0.17240  0.10924  1.0000
  I   I233      1.0  0.91278  0.55441  0.29963  1.0000
  I   I234      1.0  0.99288  0.48822  0.04262  1.0000
  I   I235      1.0  0.99913  0.92269  0.45896  1.0000
  I   I236      1.0  0.55392  0.53676  0.53190  1.0000
  I   I237      1.0  0.01469  0.97114  0.25463  1.0000
  I   I238      1.0  0.07682  0.27773  0.33992  1.0000
  I   I239      1.0  0.75637  0.31029  0.74137  1.0000
  I   I240      1.0  0.00595  0.09770  0.59742  1.0000
  I   I241      1.0  0.68091  0.19723  0.84924  1.0000
  I   I242      1.0  0.50283  0.68628  0.58011  1.0000
  I   I243      1.0  0.80505  0.83173  0.10672  1.0000
  I   I244      1.0  0.39770  0.35637  0.91924  1.0000
  I   I245      1.0  0.28454  0.81951  0.76196  1.0000
  I   I246      1.0  0.44267  0.51870  0.32296  1.0000
  I   I247      1.0  0.72950  0.01595  0.19247  1.0000
  I   I248      1.0  0.31425  0.75176  0.09644  1.0000
  I   I249      1.0  0.19667  0.43317  0.60162  1.0000
  I   I250      1.0  0.45018  0.58926  0.51759  1.0000
  I   I251      1.0  0.35637  0.91553  0.80661  1.0000
  I   I252      1.0  0.95442  0.20093  0.35381  1.0000
  I   I253      1.0  0.78848  0.71345  0.58885  1.0000
  I   I254      1.0  0.17913  0.18250  0.01217  1.0000
  I   I255      1.0  0.73963  0.87915  0.73732  1.0000
  I   I256      1.0  0.93769  0.94821  0.40160  1.0000
  I   I257      1.0  0.96116  0.56598  0.69164  1.0000
  I   I258      1.0  0.36687  0.11343  0.44138  1.0000
  I   I259      1.0  0.19605  0.18815  0.28032  1.0000
  I   I260      1.0  0.50016  0.25093  0.24662  1.0000
  I   I261      1.0  0.30405  0.79247  0.15459  1.0000
  I   I262      1.0  0.71967  0.39236  0.76358  1.0000
  I   I263      1.0  0.03114  0.69036  0.11028  1.0000
  I   I264      1.0  0.25294  0.24634  0.49411  1.0000
  I   I265      1.0  0.76044  0.50805  0.29176  1.0000
  I   I266      1.0  0.95542  0.85666  0.75324  1.0000
  I   I267      1.0  0.45419  0.54188  0.98947  1.0000
  I   I268      1.0  0.52683  0.12010  0.80217  1.0000
  I   I269      1.0  0.21412  0.97851  0.08722  1.0000
  I   I270      1.0  0.48493  0.15659  0.86927  1.0000
  I   I271      1.0  0.58117  0.34223  0.14680  1.0000
  I   I272      1.0  0.94889  0.68339  0.00398  1.0000
  I   I273      1.0  0.65141  0.24859  0.70497  1.0000
  I   I274      1.0  0.87195  0.52091  0.13376  1.0000
  I   I275      1.0  0.62299  0.80226  0.20991  1.0000
  I   I276      1.0  0.36573  0.21157  0.58530  1.0000
  I   I277      1.0  0.74359  0.40997  0.59269  1.0000
  I   I278      1.0  0.23594  0.40391  0.44684  1.0000
  I   I279      1.0  0.56186  0.03331  0.28182  1.0000
  I   I280      1.0  0.49704  0.37831  0.79750  1.0000
  I   I281      1.0  0.87770  0.51841  0.30960  1.0000
  I   I282      1.0  0.85821  0.74049  0.30364  1.0000
  I   I283      1.0  0.99527  0.86322  0.59605  1.0000
  I   I284      1.0  0.77355  0.25622  0.43177  1.0000
  I   I285      1.0  0.58011  0.05666  0.08187  1.0000
  I   I286      1.0  0.04799  0.25766  0.29835  1.0000
  I   I287      1.0  0.07578  0.87423  0.81298  1.0000
  I   I288      1.0  0.97689  0.07044  0.63213  1.0000
  I   I289      1.0  0.05056  0.87573  0.41298  1.0000
  I   I290      1.0  0.04251  0.20928  0.28339  1.0000
  I   I291      1.0  0.47536  0.64299  0.61190  1.0000
  I   I292      1.0  0.47756  0.41600  0.90669  1.0000
  I   I293      1.0  0.24923  0.78723  0.76989  1.0000
  I   I294      1.0  0.39771  0.89271  0.16627  1.0000
  I   I295      1.0  0.67485  0.00663  0.00095  1.0000
  I   I296      1.0  0.67157  0.81234  0.89418  1.0000
  I   I297      1.0  0.17186  0.42713  0.69892  1.0000
  I   I298      1.0  0.40284  0.99417  0.32896  1.0000
  I   I299      1.0  0.26901  0.59675  0.31660  1.0000
  I   I300      1.0  0.50641  0.56302  0.57512  1.0000
  I   I301      1.0  0.69708  0.86910  0.67793  1.0000
  I   I302      1.0  0.73092  0.71186  0.51066  1.0000
  I   I303      1.0  0.51566  0.72638  0.34964  1.0000
  I   I304      1.0  0.36130  0.09278  0.34176  1.0000
  I   I305      1.0  0.23823  0.62290  0.41693  1.0000
  I   I306      1.0  0.65331  0.02813  0.11234  1.0000
  I   I307      1.0  0.83015  0.22608  0.79258  1.0000
  I   I308      1.0  0.15990  0.54033  0.85232  1.0000
  I   I309      1.0  0.36054  0.73365  0.20987  1.0000
  I   I310      1.0  0.02063  0.81273  0.54951  1.0000
  I   I311      1.0  0.97668  0.71307  0.15634  1.0000
  I   I312      1.0  0.15051  0.87678  0.96194  1.0000
  I   I313      1.0  0.41349  0.60580  0.89832  1.0000
  I   I314      1.0  0.73300  0.55900  0.28750  1.0000
  I   I315      1.0  0.35967  0.27884  0.96490  1.0000
  I   I316      1.0  0.36687  0.05256  0.73969  1.0000
  I   I317      1.0  0.51515  0.17636  0.79489  1.0000
  I   I318      1.0  0.17406  0.04044  0.10531  1.0000
  I   I319      1.0  0.34175  0.87370  0.60731  1.0000
  I   I320      1.0  0.13174  0.21595  0.08120  1.0000
  I   I321      1.0  0.51519  0.69624  0.19791  1.0000
  I   I322      1.0  0.88219  0.55394  0.20843  1.0000
  I   I323      1.0  0.06761  0.40833  0.58700  1.0000
  I   I324      1.0  0.28322  0.21245  0.58863  1.0000
  I   I325      1.0  0.96619  0.48792  0.79556  1.0000
  I   I326      1.0  0.73388  0.05337  0.10526  1.0000
  I   I327      1.0  0.61576  0.99429  0.24961  1.0000
  I   I328      1.0  0.61032  0.75499  0.31437  1.0000
  I   I329      1.0  0.25625  0.49566  0.05614  1.0000
  I   I330      1.0  0.94107  0.48844  0.07348  1.0000
  I   I331      1.0  0.60158  0.99903  0.08131  1.0000
  I   I332      1.0  0.37013  0.02880  0.41330  1.0000
  I   I333      1.0  0.87224  0.56248  0.36075  1.0000
  I   I334      1.0  0.98210  0.12471  0.78476  1.0000
  I   I335      1.0  0.84293  0.84910  0.04204  1.0000
  I   I336      1.0  0.76020  0.29529  0.85909  1.0000
  I   I337      1.0  0.98256  0.88709  0.45780  1.0000
  I   I338      1.0  0.09649  0.17769  0.32108  1.0000
  I   I339      1.0  0.53381  0.62570  0.59945  1.0000
  I   I340      1.0  0.47629  0.97194  0.89636  1.0000
  I   I341      1.0  0.26981  0.07338  0.94538  1.0000
  I   I342      1.0  0.39759  0.94167  0.21841  1.0000
  I   I343      1.0  0.50239  0.75805  0.19708  1.0000
  I   I344      1.0  0.71751  0.81338  0.97730  1.0000
  I   I345      1.0  0.14241  0.48519  0.73273  1.0000
  I   I346      1.0  0.23200  0.07035  0.29656  1.0000
  I   I347      1.0  0.44245  0.54793  0.60295  1.0000
  I   I348      1.0  0.99797  0.17687  0.39990  1.0000
  I   I349      1.0  0.75810  0.86392  0.64459  1.0000
  I   I350      1.0  0.74659  0.71978  0.64949  1.0000
  I   I351      1.0  0.18408  0.14041  0.09178  1.0000
  I   I352      1.0  0.39488  0.11323  0.36192  1.0000
  I   I353      1.0  0.88988  0.96152  0.32560  1.0000
  I   I354      1.0  0.77292  0.99677  0.11685  1.0000
  I   I355      1.0  0.87652  0.18626  0.84825  1.0000
  I   I356      1.0  0.53895  0.27088  0.17258  1.0000
  I   I357      1.0  0.01626  0.83840  0.76089  1.0000
  I   I358      1.0  0.70073  0.30016  0.39571  1.0000
  I   I359      1.0  0.98597  0.67777  0.07793  1.0000
  I   I360      1.0  0.08948  0.91417  0.84741  1.0000
  I   I361      1.0  0.38776  0.56718  0.06394  1.0000
  I   I362      1.0  0.74919  0.52354  0.17288  1.0000
  I   I363      1.0  0.91967  0.83730  0.77193  1.0000
  I   I364      1.0  0.24402  0.81502  0.06486  1.0000
  I   I365      1.0  0.85164  0.46563  0.81340  1.0000
  I   I366      1.0  0.14915  0.01339  0.15977  1.0000
  I   I367      1.0  0.30659  0.93650  0.52289  1.0000
  I   I368      1.0  0.42565  0.99591  0.96611  1.0000
  I   I369      1.0  0.97911  0.62849  0.02982  1.0000
  I   I370      1.0  0.87598  0.56208  0.07454  1.0000
  I   I371      1.0  0.09936  0.39381  0.47656  1.0000
  I   I372      1.0  0.75964  0.27363  0.33143  1.0000
  I   I373      1.0  0.94301  0.51951  0.70810  1.0000
  I   I374      1.0  0.23774  0.42446  0.35395  1.0000
  I   I375      1.0  0.56815  0.99628  0.18998  1.0000
  I   I376      1.0  0.45945  0.33343  0.86779  1.0000
  I   I377      1.0  0.22632  0.46349  0.08533  1.0000
  I   I378      1.0  0.78595  0.78008  0.25876  1.0000
  I   I379      1.0  0.01424  0.02490  0.28937  1.0000
  I   I380      1.0  0.60182  0.36324  0.42060  1.0000
  I   I381      1.0  0.95146  0.10399  0.19516  1.0000
  I   I382      1.0  0.00659  0.07293  0.72866  1.0000
  I   I383      1.0  0.00630  0.29911  0.34592  1.0000
  I   I384      1.0  0.12492  0.83584  0.83572  1.0000
