data_image0
_chemical_formula_structural       Ti96I384
_chemical_formula_sum              "Ti96 I384"
_cell_length_a       66.7666
_cell_length_b       66.7187
_cell_length_c       32.6354
_cell_angle_alpha    88.7757
_cell_angle_beta     88.7757
_cell_angle_gamma    62.1586

_space_group_name_H-M_alt    "P 1"
_space_group_IT_number       1

loop_
  _space_group_symop_operation_xyz
  'x, y, z'

loop_
  _atom_site_type_symbol
  _atom_site_label
  _atom_site_symmetry_multiplicity
  _atom_site_fract_x
  _atom_site_fract_y
  _atom_site_fract_z
  _atom_site_occupancy
  Ti  Ti1       1.0  0.18496  0.75388  0.24358  1.0000
  Ti  Ti2       1.0  0.59360  0.98836  0.05030  1.0000
  Ti  Ti3       1.0  0.71293  0.93927  0.45637  1.0000
  Ti  Ti4       1.0  0.94010  0.05366  0.07922  1.0000
  Ti  Ti5       1.0  0.77401  0.76910  0.45698  1.0000
  Ti  Ti6       1.0  0.11258  0.51870  0.71767  1.0000
  Ti  Ti7       1.0  0.87938  0.31300  0.50443  1.0000
  Ti  Ti8       1.0  0.31356  0.06505  0.64580  1.0000
  Ti  Ti9       1.0  0.29074  0.85022  0.92984  1.0000
  Ti  Ti10      1.0  0.79452  0.01375  0.19920  1.0000
  Ti  Ti11      1.0  0.04485  0.20148  0.84574  1.0000
  Ti  Ti12      1.0  0.16633  0.54806  0.41662  1.0000
  Ti  Ti13      1.0  0.16518  0.05696  0.96137  1.0000
  Ti  Ti14      1.0  0.03490  0.09888  0.43787  1.0000
  Ti  Ti15      1.0  0.60861  0.09572  0.66646  1.0000
  Ti  Ti16      1.0  0.76013  0.08025  0.17529  1.0000
  Ti  Ti17      1.0  0.31707  0.02042  0.01085  1.0000
  Ti  Ti18      1.0  0.07045  0.72462  0.27855  1.0000
  Ti  Ti19      1.0  0.52994  0.48682  0.06284  1.0000
  Ti  Ti20      1.0  0.31137  0.87729  0.58028  1.0000
  Ti  Ti21      1.0  0.37446  0.03234  0.57208  1.0000
  Ti  Ti22      1.0  0.70079  0.69308  0.80411  1.0000
  Ti  Ti23      1.0  0.51187  0.05275  0.69538  1.0000
  Ti  Ti24      1.0  0.31067  0.76709  0.79833  1.0000
  Ti  Ti25      1.0  0.59917  0.84496  0.70479  1.0000
  Ti  Ti26      1.0  0.40324  0.80933  0.40144  1.0000
  Ti  Ti27      1.0  0.78025  0.00544  0.55332  1.0000
  Ti  Ti28      1.0  0.70283  0.46243  0.63486  1.0000
  Ti  Ti29      1.0  0.88156  0.94450  0.93993  1.0000
  Ti  Ti30      1.0  0.27797  0.15139  0.33135  1.0000
  Ti  Ti31      1.0  0.05853  0.83028  0.51036  1.0000
  Ti  Ti32      1.0  0.80466  0.36042  0.09354  1.0000
  Ti  Ti33      1.0  0.10008  0.89580  0.20681  1.0000
  Ti  Ti34      1.0  0.41189  0.48633  0.90888  1.0000
  Ti  Ti35      1.0  0.64511  0.59453  0.09180  1.0000
  Ti  Ti36      1.0  0.74765  0.97041  0.85451  1.0000
  Ti  Ti37      1.0  0.07835  0.48867  0.33351  1.0000
  Ti  Ti38      1.0  0.61862  0.28775  0.08617  1.0000
  Ti  Ti39      1.0  0.96535  0.55616  0.21568  1.0000
  Ti  Ti40      1.0  0.26931  0.28175  0.96193  1.0000
  Ti  Ti41      1.0  0.46121  0.71576  0.57309  1.0000
  Ti  Ti42      1.0  0.88097  0.46223  0.29989  1.0000
  Ti  Ti43      1.0  0.59016  0.20526  0.42695  1.0000
  Ti  Ti44      1.0  0.89647  0.37710  0.67307  1.0000
  Ti  Ti45      1.0  0.36668  0.56472  0.63463  1.0000
  Ti  Ti46      1.0  0.48983  0.45232  0.43689  1.0000
  Ti  Ti47      1.0  0.23097  0.52872  0.16460  1.0000
  Ti  Ti48      1.0  0.58909  0.24112  0.66844  1.0000
  Ti  Ti49      1.0  0.76374  0.63202  0.48338  1.0000
  Ti  Ti50      1.0  0.01444  0.32036  0.81390  1.0000
  Ti  Ti51      1.0  0.57372  0.98910  0.93795  1.0000
  Ti  Ti52      1.0  0.99420  0.02763  0.13895  1.0000
  Ti  Ti53      1.0  0.44299  0.66309  0.92282  1.0000
  Ti  Ti54      1.0  0.16858  0.50057  0.75548  1.0000
  Ti  Ti55      1.0  0.88887  0.25103  0.44138  1.0000
  Ti  Ti56      1.0  0.32231  0.47019  0.72091  1.0000
  Ti  Ti57      1.0  0.25583  0.89895  0.98642  1.0000
  Ti  Ti58      1.0  0.64133  0.18979  0.36916  1.0000
  Ti  Ti59      1.0  0.13717  0.29160  0.87924  1.0000
  Ti  Ti60      1.0  0.13745  0.61229  0.50803  1.0000
  Ti  Ti61      1.0  0.64985  0.04697  0.66854  1.0000
  Ti  Ti62      1.0  0.17172  0.03897  0.84926  1.0000
  Ti  Ti63      1.0  0.96232  0.11524  0.48381  1.0000
  Ti  Ti64      1.0  0.02602  0.72995  0.21407  1.0000
  Ti  Ti65      1.0  0.98298  0.52334  0.64015  1.0000
  Ti  Ti66      1.0  0.53300  0.26190  0.16069  1.0000
  Ti  Ti67      1.0  0.58986  0.45218  0.05480  1.0000
  Ti  Ti68      1.0  0.00220  0.46065  0.03110  1.0000
  Ti  Ti69      1.0  0.42944  0.93775  0.93746  1.0000
  Ti  Ti70      1.0  0.64234  0.65560  0.75266  1.0000
  Ti  Ti71      1.0  0.54284  0.99583  0.64115  1.0000
  Ti  Ti72      1.0  0.06893  0.13981  0.17942  1.0000
  Ti  Ti73      1.0  0.80220  0.05263  0.59894  1.0000
  Ti  Ti74      1.0  0.61511  0.86812  0.81537  1.0000
  Ti  Ti75      1.0  0.38271  0.85289  0.34516  1.0000
  Ti  Ti76      1.0  0.25346  0.09537  0.33687  1.0000
  Ti  Ti77      1.0  0.65072  0.52442  0.66087  1.0000
  Ti  Ti78      1.0  0.94700  0.88968  0.91085  1.0000
  Ti  Ti79      1.0  0.62665  0.34908  0.42200  1.0000
  Ti  Ti80      1.0  0.73249  0.16120  0.00530  1.0000
  Ti  Ti81      1.0  0.76380  0.34657  0.13726  1.0000
  Ti  Ti82      1.0  0.48807  0.45942  0.84540  1.0000
  Ti  Ti83      1.0  0.67579  0.54419  0.08464  1.0000
  Ti  Ti84      1.0  0.75907  0.91018  0.90648  1.0000
  Ti  Ti85      1.0  0.07353  0.47816  0.44060  1.0000
  Ti  Ti86      1.0  0.57970  0.28429  0.16343  1.0000
  Ti  Ti87      1.0  0.90398  0.59407  0.15964  1.0000
  Ti  Ti88      1.0  0.57925  0.66910  0.32309  1.0000
  Ti  Ti89      1.0  0.46323  0.74170  0.64814  1.0000
  Ti  Ti90      1.0  0.86357  0.48100  0.18446  1.0000
  Ti  Ti91      1.0  0.31097  0.59423  0.61523  1.0000
  Ti  Ti92      1.0  0.09586  0.73006  0.86860  1.0000
  Ti  Ti93      1.0  0.90554  0.40757  0.54478  1.0000
  Ti  Ti94      1.0  0.61453  0.24991  0.58883  1.0000
  Ti  Ti95      1.0  0.46047  0.45215  0.36772  1.0000
  Ti  Ti96      1.0  0.21420  0.48440  0.12734  1.0000
  I   I1        1.0  0.24198  0.43868  0.12329  1.0000
  I   I2        1.0  0.54839  0.99659  0.05668  1.0000
  I   I3        1.0  0.74638  0.65967  0.41697  1.0000
  I   I4        1.0  0.42752  0.65589  0.85758  1.0000
  I   I5        1.0  0.13661  0.54483  0.77420  1.0000
  I   I6        1.0  0.16875  0.48067  0.82228  1.0000
  I   I7        1.0  0.28319  0.09985  0.58999  1.0000
  I   I8        1.0  0.30519  0.45557  0.77905  1.0000
  I   I9        1.0  0.25894  0.88953  0.90279  1.0000
  I   I10       1.0  0.78781  0.10157  0.18815  1.0000
  I   I11       1.0  0.04840  0.22231  0.91161  1.0000
  I   I12       1.0  0.75089  0.74491  0.45566  1.0000
  I   I13       1.0  0.14054  0.03698  0.95339  1.0000
  I   I14       1.0  0.99615  0.12566  0.49651  1.0000
  I   I15       1.0  0.57710  0.12704  0.70253  1.0000
  I   I16       1.0  0.76455  0.05357  0.24502  1.0000
  I   I17       1.0  0.49982  0.28117  0.10391  1.0000
  I   I18       1.0  0.98998  0.72301  0.21584  1.0000
  I   I19       1.0  0.33376  0.89096  0.62514  1.0000
  I   I20       1.0  0.06104  0.20747  0.77740  1.0000
  I   I21       1.0  0.40200  0.04310  0.54043  1.0000
  I   I22       1.0  0.48609  0.06403  0.75887  1.0000
  I   I23       1.0  0.55245  0.02631  0.60070  1.0000
  I   I24       1.0  0.64159  0.69294  0.72722  1.0000
  I   I25       1.0  0.59810  0.86180  0.88458  1.0000
  I   I26       1.0  0.35974  0.84073  0.29789  1.0000
  I   I27       1.0  0.77742  0.08815  0.54502  1.0000
  I   I28       1.0  0.62978  0.55573  0.60627  1.0000
  I   I29       1.0  0.92600  0.92130  0.97834  1.0000
  I   I30       1.0  0.29159  0.15251  0.40415  1.0000
  I   I31       1.0  0.72733  0.13161  0.95777  1.0000
  I   I32       1.0  0.72317  0.34950  0.12013  1.0000
  I   I33       1.0  0.61189  0.39208  0.39808  1.0000
  I   I34       1.0  0.66173  0.51289  0.09644  1.0000
  I   I35       1.0  0.78528  0.96797  0.81848  1.0000
  I   I36       1.0  0.40127  0.46222  0.87077  1.0000
  I   I37       1.0  0.08825  0.47367  0.52050  1.0000
  I   I38       1.0  0.86783  0.61521  0.20885  1.0000
  I   I39       1.0  0.08903  0.44194  0.39776  1.0000
  I   I40       1.0  0.42105  0.75592  0.67205  1.0000
  I   I41       1.0  0.87167  0.45403  0.12834  1.0000
  I   I42       1.0  0.23421  0.27949  0.93165  1.0000
  I   I43       1.0  0.68422  0.17477  0.35783  1.0000
  I   I44       1.0  0.90495  0.41990  0.62755  1.0000
  I   I45       1.0  0.33184  0.56544  0.67903  1.0000
  I   I46       1.0  0.48182  0.41692  0.30993  1.0000
  I   I47       1.0  0.20327  0.55192  0.22430  1.0000
  I   I48       1.0  0.54856  0.25419  0.62698  1.0000
  I   I49       1.0  0.77162  0.60631  0.55050  1.0000
  I   I50       1.0  0.60351  0.00815  0.97582  1.0000
  I   I51       1.0  0.59305  0.95819  0.99584  1.0000
  I   I52       1.0  0.90574  0.06276  0.14010  1.0000
  I   I53       1.0  0.41530  0.69735  0.96713  1.0000
  I   I54       1.0  0.20422  0.50324  0.74219  1.0000
  I   I55       1.0  0.86595  0.35274  0.47768  1.0000
  I   I56       1.0  0.31165  0.08805  0.71254  1.0000
  I   I57       1.0  0.27565  0.83213  0.87535  1.0000
  I   I58       1.0  0.80322  0.98678  0.13671  1.0000
  I   I59       1.0  0.12193  0.26179  0.89488  1.0000
  I   I60       1.0  0.09548  0.63407  0.50933  1.0000
  I   I61       1.0  0.13187  0.03916  0.83587  1.0000
  I   I62       1.0  0.14109  0.09587  0.00597  1.0000
  I   I63       1.0  0.05397  0.05745  0.41516  1.0000
  I   I64       1.0  0.74177  0.04993  0.15758  1.0000
  I   I65       1.0  0.97291  0.52792  0.71574  1.0000
  I   I66       1.0  0.50184  0.26944  0.21228  1.0000
  I   I67       1.0  0.54842  0.44364  0.04283  1.0000
  I   I68       1.0  0.26977  0.90993  0.59877  1.0000
  I   I69       1.0  0.41104  0.93666  0.00408  1.0000
  I   I70       1.0  0.60707  0.65127  0.73720  1.0000
  I   I71       1.0  0.52839  0.08008  0.69694  1.0000
  I   I72       1.0  0.07649  0.17254  0.19981  1.0000
  I   I73       1.0  0.81270  0.05245  0.67317  1.0000
  I   I74       1.0  0.41173  0.76731  0.37833  1.0000
  I   I75       1.0  0.42556  0.81948  0.33857  1.0000
  I   I76       1.0  0.66736  0.47296  0.58193  1.0000
  I   I77       1.0  0.61387  0.52058  0.67637  1.0000
  I   I78       1.0  0.97124  0.85369  0.95563  1.0000
  I   I79       1.0  0.11975  0.88251  0.27377  1.0000
  I   I80       1.0  0.07336  0.80932  0.58524  1.0000
  I   I81       1.0  0.75526  0.37888  0.19402  1.0000
  I   I82       1.0  0.51155  0.48166  0.85859  1.0000
  I   I83       1.0  0.69001  0.56878  0.14400  1.0000
  I   I84       1.0  0.74470  0.90257  0.97757  1.0000
  I   I85       1.0  0.03987  0.47100  0.48191  1.0000
  I   I86       1.0  0.57888  0.27813  0.07786  1.0000
  I   I87       1.0  0.00577  0.52034  0.21090  1.0000
  I   I88       1.0  0.30426  0.28561  0.92079  1.0000
  I   I89       1.0  0.47492  0.71107  0.70247  1.0000
  I   I90       1.0  0.87931  0.50729  0.14693  1.0000
  I   I91       1.0  0.28741  0.62618  0.67227  1.0000
  I   I92       1.0  0.13120  0.73428  0.85082  1.0000
  I   I93       1.0  0.85587  0.41409  0.67964  1.0000
  I   I94       1.0  0.62858  0.21605  0.70268  1.0000
  I   I95       1.0  0.47472  0.45324  0.51304  1.0000
  I   I96       1.0  0.17763  0.48698  0.15504  1.0000
  I   I97       1.0  0.73577  0.93595  0.52652  1.0000
  I   I98       1.0  0.22062  0.76241  0.23738  1.0000
  I   I99       1.0  0.61077  0.98534  0.12606  1.0000
  I   I100      1.0  0.96196  0.07576  0.10830  1.0000
  I   I101      1.0  0.02832  0.03626  0.14507  1.0000
  I   I102      1.0  0.78549  0.77608  0.38607  1.0000
  I   I103      1.0  0.91410  0.23222  0.37843  1.0000
  I   I104      1.0  0.84371  0.32020  0.54774  1.0000
  I   I105      1.0  0.26194  0.93261  0.02642  1.0000
  I   I106      1.0  0.16966  0.55009  0.33739  1.0000
  I   I107      1.0  0.81804  0.98067  0.24868  1.0000
  I   I108      1.0  0.15199  0.52128  0.44046  1.0000
  I   I109      1.0  0.60211  0.12801  0.60705  1.0000
  I   I110      1.0  0.14018  0.08000  0.88529  1.0000
  I   I111      1.0  0.97137  0.07484  0.51480  1.0000
  I   I112      1.0  0.05901  0.69282  0.24671  1.0000
  I   I113      1.0  0.00469  0.54580  0.64363  1.0000
  I   I114      1.0  0.32587  0.99601  0.07862  1.0000
  I   I115      1.0  0.55883  0.48469  0.12349  1.0000
  I   I116      1.0  0.48816  0.49932  0.03061  1.0000
  I   I117      1.0  0.02573  0.47338  0.07747  1.0000
  I   I118      1.0  0.69459  0.66103  0.76579  1.0000
  I   I119      1.0  0.67769  0.62061  0.72000  1.0000
  I   I120      1.0  0.05816  0.13941  0.10478  1.0000
  I   I121      1.0  0.82063  0.00759  0.60002  1.0000
  I   I122      1.0  0.59831  0.84569  0.62115  1.0000
  I   I123      1.0  0.39994  0.84919  0.43491  1.0000
  I   I124      1.0  0.25810  0.07647  0.40920  1.0000
  I   I125      1.0  0.73808  0.44832  0.58729  1.0000
  I   I126      1.0  0.91307  0.92770  0.87236  1.0000
  I   I127      1.0  0.08904  0.93805  0.19039  1.0000
  I   I128      1.0  0.74872  0.18976  0.99438  1.0000
  I   I129      1.0  0.78115  0.30901  0.18427  1.0000
  I   I130      1.0  0.78154  0.93793  0.90491  1.0000
  I   I131      1.0  0.46183  0.44421  0.88823  1.0000
  I   I132      1.0  0.63909  0.56049  0.14812  1.0000
  I   I133      1.0  0.98688  0.57479  0.24980  1.0000
  I   I134      1.0  0.65574  0.27847  0.12904  1.0000
  I   I135      1.0  0.62546  0.25126  0.15381  1.0000
  I   I136      1.0  0.91963  0.43496  0.33802  1.0000
  I   I137      1.0  0.56666  0.68809  0.39317  1.0000
  I   I138      1.0  0.48088  0.66852  0.56488  1.0000
  I   I139      1.0  0.39816  0.54981  0.57881  1.0000
  I   I140      1.0  0.07974  0.72227  0.80267  1.0000
  I   I141      1.0  0.89404  0.37411  0.59089  1.0000
  I   I142      1.0  0.56396  0.25488  0.73864  1.0000
  I   I143      1.0  0.43731  0.47810  0.30892  1.0000
  I   I144      1.0  0.27234  0.50108  0.19093  1.0000
  I   I145      1.0  0.17096  0.72912  0.20380  1.0000
  I   I146      1.0  0.57728  0.03374  0.04806  1.0000
  I   I147      1.0  0.71411  0.97442  0.41206  1.0000
  I   I148      1.0  0.96696  0.00948  0.10610  1.0000
  I   I149      1.0  0.80875  0.75206  0.50492  1.0000
  I   I150      1.0  0.08619  0.56395  0.70680  1.0000
  I   I151      1.0  0.88965  0.21149  0.45765  1.0000
  I   I152      1.0  0.28870  0.05023  0.68085  1.0000
  I   I153      1.0  0.24599  0.86656  0.99960  1.0000
  I   I154      1.0  0.61790  0.16670  0.37107  1.0000
  I   I155      1.0  0.06943  0.15831  0.87350  1.0000
  I   I156      1.0  0.15710  0.63846  0.51947  1.0000
  I   I157      1.0  0.64943  0.08716  0.69213  1.0000
  I   I158      1.0  0.92863  0.14744  0.52009  1.0000
  I   I159      1.0  0.68920  0.02840  0.71526  1.0000
  I   I160      1.0  0.08038  0.74112  0.21230  1.0000
  I   I161      1.0  0.34662  0.03150  0.99436  1.0000
  I   I162      1.0  0.01438  0.77450  0.20167  1.0000
  I   I163      1.0  0.49173  0.51968  0.10968  1.0000
  I   I164      1.0  0.00130  0.42484  0.05649  1.0000
  I   I165      1.0  0.39884  0.98811  0.56656  1.0000
  I   I166      1.0  0.70187  0.67733  0.88024  1.0000
  I   I167      1.0  0.49268  0.06595  0.61751  1.0000
  I   I168      1.0  0.31701  0.74470  0.86845  1.0000
  I   I169      1.0  0.58327  0.90874  0.79773  1.0000
  I   I170      1.0  0.62560  0.86315  0.72264  1.0000
  I   I171      1.0  0.76471  0.98043  0.58391  1.0000
  I   I172      1.0  0.28162  0.06054  0.29889  1.0000
  I   I173      1.0  0.85513  0.93803  0.89962  1.0000
  I   I174      1.0  0.24970  0.19022  0.32652  1.0000
  I   I175      1.0  0.02770  0.82062  0.47575  1.0000
  I   I176      1.0  0.80214  0.39488  0.13809  1.0000
  I   I177      1.0  0.59221  0.35294  0.46744  1.0000
  I   I178      1.0  0.52512  0.42289  0.83657  1.0000
  I   I179      1.0  0.70527  0.51160  0.13576  1.0000
  I   I180      1.0  0.73119  0.91742  0.84875  1.0000
  I   I181      1.0  0.04592  0.52120  0.42862  1.0000
  I   I182      1.0  0.57129  0.24722  0.20216  1.0000
  I   I183      1.0  0.89080  0.61055  0.08947  1.0000
  I   I184      1.0  0.55333  0.70202  0.27910  1.0000
  I   I185      1.0  0.42584  0.71233  0.56348  1.0000
  I   I186      1.0  0.90582  0.46061  0.21869  1.0000
  I   I187      1.0  0.10579  0.69226  0.90237  1.0000
  I   I188      1.0  0.92535  0.36482  0.73507  1.0000
  I   I189      1.0  0.34220  0.59854  0.57747  1.0000
  I   I190      1.0  0.50446  0.44923  0.34987  1.0000
  I   I191      1.0  0.03481  0.29676  0.74076  1.0000
  I   I192      1.0  0.63352  0.26774  0.54385  1.0000
  I   I193      1.0  0.15513  0.78609  0.28267  1.0000
  I   I194      1.0  0.98852  0.30955  0.85935  1.0000
  I   I195      1.0  0.67169  0.95803  0.47428  1.0000
  I   I196      1.0  0.91677  0.09693  0.04208  1.0000
  I   I197      1.0  0.64494  0.17849  0.45618  1.0000
  I   I198      1.0  0.10643  0.50128  0.65493  1.0000
  I   I199      1.0  0.88322  0.26500  0.52466  1.0000
  I   I200      1.0  0.28119  0.50780  0.69252  1.0000
  I   I201      1.0  0.31687  0.80356  0.94960  1.0000
  I   I202      1.0  0.14430  0.30678  0.94778  1.0000
  I   I203      1.0  0.42308  0.91545  0.88169  1.0000
  I   I204      1.0  0.21099  0.52197  0.41854  1.0000
  I   I205      1.0  0.20037  0.04731  0.90493  1.0000
  I   I206      1.0  0.93490  0.13229  0.41090  1.0000
  I   I207      1.0  0.62250  0.06241  0.73181  1.0000
  I   I208      1.0  0.71727  0.10553  0.19865  1.0000
  I   I209      1.0  0.27824  0.05877  0.01599  1.0000
  I   I210      1.0  0.06396  0.75839  0.32883  1.0000
  I   I211      1.0  0.60779  0.43523  0.12673  1.0000
  I   I212      1.0  0.32082  0.83757  0.60922  1.0000
  I   I213      1.0  0.42801  0.97062  0.89371  1.0000
  I   I214      1.0  0.74159  0.68111  0.78425  1.0000
  I   I215      1.0  0.49863  0.01511  0.66421  1.0000
  I   I216      1.0  0.33882  0.77858  0.76944  1.0000
  I   I217      1.0  0.56560  0.86983  0.75420  1.0000
  I   I218      1.0  0.34276  0.88520  0.36765  1.0000
  I   I219      1.0  0.75872  0.03124  0.48565  1.0000
  I   I220      1.0  0.71357  0.42739  0.68417  1.0000
  I   I221      1.0  0.87761  0.98753  0.94572  1.0000
  I   I222      1.0  0.24723  0.13583  0.37657  1.0000
  I   I223      1.0  0.03645  0.87158  0.53788  1.0000
  I   I224      1.0  0.85192  0.34081  0.10303  1.0000
  I   I225      1.0  0.12632  0.85935  0.16535  1.0000
  I   I226      1.0  0.47846  0.46058  0.76669  1.0000
  I   I227      1.0  0.64984  0.57393  0.02092  1.0000
  I   I228      1.0  0.74374  0.00562  0.89350  1.0000
  I   I229      1.0  0.07521  0.52552  0.29592  1.0000
  I   I230      1.0  0.63712  0.25234  0.03722  1.0000
  I   I231      1.0  0.89443  0.55566  0.16339  1.0000
  I   I232      1.0  0.06213  0.09429  0.50085  1.0000
  I   I233      1.0  0.47142  0.71423  0.49269  1.0000
  I   I234      1.0  0.81765  0.50664  0.17854  1.0000
  I   I235      1.0  0.62980  0.23056  0.39565  1.0000
  I   I236      1.0  0.88326  0.45004  0.52318  1.0000
  I   I237      1.0  0.28399  0.61643  0.55684  1.0000
  I   I238      1.0  0.44773  0.49033  0.41972  1.0000
  I   I239      1.0  0.21133  0.47474  0.04901  1.0000
  I   I240      1.0  0.60772  0.21344  0.60560  1.0000
  I   I241      1.0  0.75961  0.59950  0.44655  1.0000
  I   I242      1.0  0.59747  0.96725  0.87534  1.0000
  I   I243      1.0  0.72327  0.90288  0.41165  1.0000
  I   I244      1.0  0.97400  0.04196  0.21684  1.0000
  I   I245      1.0  0.44543  0.62689  0.95767  1.0000
  I   I246      1.0  0.14983  0.47132  0.71998  1.0000
  I   I247      1.0  0.88713  0.29197  0.42386  1.0000
  I   I248      1.0  0.35121  0.07635  0.61088  1.0000
  I   I249      1.0  0.29999  0.86937  0.00283  1.0000
  I   I250      1.0  0.16287  0.26929  0.81482  1.0000
  I   I251      1.0  0.99941  0.21812  0.84798  1.0000
  I   I252      1.0  0.13223  0.62311  0.58895  1.0000
  I   I253      1.0  0.19797  0.99634  0.86937  1.0000
  I   I254      1.0  0.99343  0.10122  0.40917  1.0000
  I   I255      1.0  0.65520  0.00671  0.65612  1.0000
  I   I256      1.0  0.94674  0.54357  0.59717  1.0000
  I   I257      1.0  0.31386  0.98830  0.95954  1.0000
  I   I258      1.0  0.02165  0.74587  0.29797  1.0000
  I   I259      1.0  0.61827  0.42321  0.00088  1.0000
  I   I260      1.0  0.03371  0.44925  0.97394  1.0000
  I   I261      1.0  0.34411  0.05171  0.51920  1.0000
  I   I262      1.0  0.67596  0.73473  0.80915  1.0000
  I   I263      1.0  0.56961  0.95296  0.66053  1.0000
  I   I264      1.0  0.27127  0.80412  0.78083  1.0000
  I   I265      1.0  0.58597  0.81202  0.70300  1.0000
  I   I266      1.0  0.42669  0.79279  0.46939  1.0000
  I   I267      1.0  0.83627  0.05739  0.57305  1.0000
  I   I268      1.0  0.67990  0.48178  0.71037  1.0000
  I   I269      1.0  0.98061  0.89735  0.88555  1.0000
  I   I270      1.0  0.27169  0.11883  0.28333  1.0000
  I   I271      1.0  0.08540  0.83066  0.45534  1.0000
  I   I272      1.0  0.80550  0.31765  0.08870  1.0000
  I   I273      1.0  0.05641  0.90298  0.20519  1.0000
  I   I274      1.0  0.44049  0.50126  0.87955  1.0000
  I   I275      1.0  0.66759  0.61600  0.07492  1.0000
  I   I276      1.0  0.79080  0.87515  0.87182  1.0000
  I   I277      1.0  0.11627  0.48263  0.39351  1.0000
  I   I278      1.0  0.57470  0.32485  0.12243  1.0000
  I   I279      1.0  0.93989  0.55097  0.26778  1.0000
  I   I280      1.0  0.62077  0.65984  0.31655  1.0000
  I   I281      1.0  0.46824  0.76956  0.70075  1.0000
  I   I282      1.0  0.85401  0.47533  0.36806  1.0000
  I   I283      1.0  0.57751  0.17983  0.47266  1.0000
  I   I284      1.0  0.94926  0.38009  0.53522  1.0000
  I   I285      1.0  0.37264  0.59569  0.68077  1.0000
  I   I286      1.0  0.43676  0.43766  0.41395  1.0000
  I   I287      1.0  0.23448  0.48334  0.20492  1.0000
  I   I288      1.0  0.59502  0.28040  0.66279  1.0000
  I   I289      1.0  0.80346  0.62465  0.47408  1.0000
  I   I290      1.0  0.02393  0.34905  0.85600  1.0000
  I   I291      1.0  0.56492  0.02733  0.89382  1.0000
  I   I292      1.0  0.02351  0.98478  0.12978  1.0000
  I   I293      1.0  0.47694  0.67206  0.92707  1.0000
  I   I294      1.0  0.16251  0.51262  0.66578  1.0000
  I   I295      1.0  0.92388  0.29912  0.52228  1.0000
  I   I296      1.0  0.35728  0.47624  0.73625  1.0000
  I   I297      1.0  0.21636  0.93437  0.96229  1.0000
  I   I298      1.0  0.63997  0.19868  0.29044  1.0000
  I   I299      1.0  0.77536  0.06804  0.10203  1.0000
  I   I300      1.0  0.14767  0.56593  0.50180  1.0000
  I   I301      1.0  0.65191  0.06686  0.59289  1.0000
  I   I302      1.0  0.19387  0.03049  0.02115  1.0000
  I   I303      1.0  0.26911  0.30635  0.02255  1.0000
  I   I304      1.0  0.11162  0.69792  0.29293  1.0000
  I   I305      1.0  0.82979  0.02396  0.18958  1.0000
  I   I306      1.0  0.53359  0.30542  0.15975  1.0000
  I   I307      1.0  0.54332  0.50488  0.99567  1.0000
  I   I308      1.0  0.30586  0.87536  0.50161  1.0000
  I   I309      1.0  0.35544  0.02263  0.65227  1.0000
  I   I310      1.0  0.64003  0.66519  0.83351  1.0000
  I   I311      1.0  0.54917  0.01673  0.72023  1.0000
  I   I312      1.0  0.09676  0.10323  0.20891  1.0000
  I   I313      1.0  0.81327  0.97826  0.50340  1.0000
  I   I314      1.0  0.62171  0.82526  0.78963  1.0000
  I   I315      1.0  0.38991  0.88101  0.30206  1.0000
  I   I316      1.0  0.21200  0.10302  0.31961  1.0000
  I   I317      1.0  0.69201  0.51250  0.61948  1.0000
  I   I318      1.0  0.86654  0.93441  0.01307  1.0000
  I   I319      1.0  0.65035  0.31151  0.37721  1.0000
  I   I320      1.0  0.73674  0.14825  0.08671  1.0000
  I   I321      1.0  0.80491  0.38286  0.02344  1.0000
  I   I322      1.0  0.37858  0.52188  0.93396  1.0000
  I   I323      1.0  0.70987  0.54828  0.04164  1.0000
  I   I324      1.0  0.70361  0.98669  0.82909  1.0000
  I   I325      1.0  0.04314  0.48412  0.32274  1.0000
  I   I326      1.0  0.58304  0.30142  0.23726  1.0000
  I   I327      1.0  0.93192  0.60428  0.20153  1.0000
  I   I328      1.0  0.28983  0.23843  0.97913  1.0000
  I   I329      1.0  0.44803  0.76711  0.57044  1.0000
  I   I330      1.0  0.86201  0.44239  0.25768  1.0000
  I   I331      1.0  0.40078  0.53600  0.68396  1.0000
  I   I332      1.0  0.59078  0.23405  0.48648  1.0000
  I   I333      1.0  0.88359  0.34616  0.69186  1.0000
  I   I334      1.0  0.65688  0.22471  0.62137  1.0000
  I   I335      1.0  0.51096  0.47489  0.46015  1.0000
  I   I336      1.0  0.24367  0.56098  0.14500  1.0000
  I   I337      1.0  0.20388  0.72964  0.30791  1.0000
  I   I338      1.0  0.99323  0.35370  0.76030  1.0000
  I   I339      1.0  0.54204  0.97182  0.92606  1.0000
  I   I340      1.0  0.92123  0.04318  0.01597  1.0000
  I   I341      1.0  0.74304  0.80915  0.48669  1.0000
  I   I342      1.0  0.09199  0.50840  0.77547  1.0000
  I   I343      1.0  0.84237  0.27946  0.43522  1.0000
  I   I344      1.0  0.32514  0.46117  0.64124  1.0000
  I   I345      1.0  0.32204  0.85403  0.89344  1.0000
  I   I346      1.0  0.55371  0.21862  0.38789  1.0000
  I   I347      1.0  0.10386  0.33319  0.86220  1.0000
  I   I348      1.0  0.15125  0.60017  0.42676  1.0000
  I   I349      1.0  0.59399  0.06754  0.63884  1.0000
  I   I350      1.0  0.18571  0.04700  0.77513  1.0000
  I   I351      1.0  0.04679  0.11756  0.38032  1.0000
  I   I352      1.0  0.02494  0.72644  0.13240  1.0000
  I   I353      1.0  0.00399  0.47825  0.62975  1.0000
  I   I354      1.0  0.55021  0.22477  0.10993  1.0000
  I   I355      1.0  0.59725  0.48681  0.05490  1.0000
  I   I356      1.0  0.96559  0.49437  0.00994  1.0000
  I   I357      1.0  0.47362  0.91374  0.94804  1.0000
  I   I358      1.0  0.30266  0.74448  0.74249  1.0000
  I   I359      1.0  0.54102  0.97727  0.57163  1.0000
  I   I360      1.0  0.03147  0.14219  0.21534  1.0000
  I   I361      1.0  0.76166  0.04305  0.59937  1.0000
  I   I362      1.0  0.64580  0.87825  0.83564  1.0000
  I   I363      1.0  0.36190  0.81677  0.41341  1.0000
  I   I364      1.0  0.31274  0.14917  0.29216  1.0000
  I   I365      1.0  0.64722  0.55436  0.71933  1.0000
  I   I366      1.0  0.92003  0.87068  0.90362  1.0000
  I   I367      1.0  0.64378  0.35566  0.49295  1.0000
  I   I368      1.0  0.69157  0.18656  0.03691  1.0000
  I   I369      1.0  0.75888  0.38265  0.08215  1.0000
  I   I370      1.0  0.41687  0.47511  0.98704  1.0000
  I   I371      1.0  0.60399  0.62906  0.10826  1.0000
  I   I372      1.0  0.72176  0.96147  0.92097  1.0000
  I   I373      1.0  0.11335  0.46025  0.28876  1.0000
  I   I374      1.0  0.63050  0.30787  0.03278  1.0000
  I   I375      1.0  0.95295  0.56665  0.13389  1.0000
  I   I376      1.0  0.56999  0.63390  0.33493  1.0000
  I   I377      1.0  0.49784  0.71993  0.59409  1.0000
  I   I378      1.0  0.86413  0.50238  0.26707  1.0000
  I   I379      1.0  0.31599  0.55617  0.57816  1.0000
  I   I380      1.0  0.05962  0.76602  0.89809  1.0000
  I   I381      1.0  0.88920  0.40044  0.47025  1.0000
  I   I382      1.0  0.57848  0.28795  0.56226  1.0000
  I   I383      1.0  0.52106  0.40868  0.43906  1.0000
  I   I384      1.0  0.20319  0.53031  0.10761  1.0000
