data_image0
_chemical_formula_structural       Ti96I384
_chemical_formula_sum              "Ti96 I384"
_cell_length_a       76.6374
_cell_length_b       76.6993
_cell_length_c       37.4925
_cell_angle_alpha    88.7757
_cell_angle_beta     88.7757
_cell_angle_gamma    62.1586

_space_group_name_H-M_alt    "P 1"
_space_group_IT_number       1

loop_
  _space_group_symop_operation_xyz
  'x, y, z'

loop_
  _atom_site_type_symbol
  _atom_site_label
  _atom_site_symmetry_multiplicity
  _atom_site_fract_x
  _atom_site_fract_y
  _atom_site_fract_z
  _atom_site_occupancy
  Ti  Ti1       1.0  0.89556  0.83441  0.54229  1.0000
  Ti  Ti2       1.0  0.51992  0.74906  0.69995  1.0000
  Ti  Ti3       1.0  0.06588  0.22456  0.55374  1.0000
  Ti  Ti4       1.0  0.18648  0.18992  0.74457  1.0000
  Ti  Ti5       1.0  0.40831  0.02474  0.61927  1.0000
  Ti  Ti6       1.0  0.57500  0.55229  0.09225  1.0000
  Ti  Ti7       1.0  0.87624  0.79772  0.16770  1.0000
  Ti  Ti8       1.0  0.15706  0.99793  0.52085  1.0000
  Ti  Ti9       1.0  0.08733  0.51432  0.66520  1.0000
  Ti  Ti10      1.0  0.57999  0.65421  0.46409  1.0000
  Ti  Ti11      1.0  0.09073  0.91491  0.00345  1.0000
  Ti  Ti12      1.0  0.70893  0.87846  0.13594  1.0000
  Ti  Ti13      1.0  0.95385  0.58967  0.81706  1.0000
  Ti  Ti14      1.0  0.21591  0.21600  0.78345  1.0000
  Ti  Ti15      1.0  0.87292  0.29849  0.14680  1.0000
  Ti  Ti16      1.0  0.17615  0.85748  0.64218  1.0000
  Ti  Ti17      1.0  0.32303  0.53640  0.52797  1.0000
  Ti  Ti18      1.0  0.70045  0.16209  0.85513  1.0000
  Ti  Ti19      1.0  0.58430  0.31620  0.84446  1.0000
  Ti  Ti20      1.0  0.04502  0.71938  0.88303  1.0000
  Ti  Ti21      1.0  0.17612  0.98523  0.60526  1.0000
  Ti  Ti22      1.0  0.54546  0.44568  0.66252  1.0000
  Ti  Ti23      1.0  0.20166  0.56168  0.53696  1.0000
  Ti  Ti24      1.0  0.58393  0.26652  0.50568  1.0000
  Ti  Ti25      1.0  0.74168  0.44926  0.12961  1.0000
  Ti  Ti26      1.0  0.10226  0.74920  0.52902  1.0000
  Ti  Ti27      1.0  0.68764  0.77863  0.99027  1.0000
  Ti  Ti28      1.0  0.43665  0.01360  0.05256  1.0000
  Ti  Ti29      1.0  0.00752  0.02447  0.79863  1.0000
  Ti  Ti30      1.0  0.16253  0.15014  0.20716  1.0000
  Ti  Ti31      1.0  0.80316  0.20755  0.20635  1.0000
  Ti  Ti32      1.0  0.47194  0.73286  0.10548  1.0000
  Ti  Ti33      1.0  0.54862  0.32844  0.03102  1.0000
  Ti  Ti34      1.0  0.73237  0.47379  0.48990  1.0000
  Ti  Ti35      1.0  0.64518  0.84735  0.13047  1.0000
  Ti  Ti36      1.0  0.24685  0.24120  0.56861  1.0000
  Ti  Ti37      1.0  0.21996  0.31202  0.74734  1.0000
  Ti  Ti38      1.0  0.41237  0.39309  0.82029  1.0000
  Ti  Ti39      1.0  0.95418  0.31261  0.59842  1.0000
  Ti  Ti40      1.0  0.61496  0.66236  0.50451  1.0000
  Ti  Ti41      1.0  0.85979  0.69795  0.07585  1.0000
  Ti  Ti42      1.0  0.89468  0.73140  0.50747  1.0000
  Ti  Ti43      1.0  0.10281  0.80909  0.23311  1.0000
  Ti  Ti44      1.0  0.85306  0.30617  0.48907  1.0000
  Ti  Ti45      1.0  0.76833  0.63261  0.36697  1.0000
  Ti  Ti46      1.0  0.83490  0.46488  0.98096  1.0000
  Ti  Ti47      1.0  0.89179  0.01404  0.91379  1.0000
  Ti  Ti48      1.0  0.95605  0.95142  0.47745  1.0000
  Ti  Ti49      1.0  0.04425  0.85165  0.21200  1.0000
  Ti  Ti50      1.0  0.02686  0.46876  0.97854  1.0000
  Ti  Ti51      1.0  0.53154  0.79171  0.63382  1.0000
  Ti  Ti52      1.0  0.43988  0.44865  0.24245  1.0000
  Ti  Ti53      1.0  0.38805  0.68186  0.69637  1.0000
  Ti  Ti54      1.0  0.38532  0.90665  0.86258  1.0000
  Ti  Ti55      1.0  0.54708  0.67490  0.01171  1.0000
  Ti  Ti56      1.0  0.79619  0.95220  0.80265  1.0000
  Ti  Ti57      1.0  0.11178  0.47334  0.67443  1.0000
  Ti  Ti58      1.0  0.42029  0.17480  0.45371  1.0000
  Ti  Ti59      1.0  0.16836  0.87074  0.72882  1.0000
  Ti  Ti60      1.0  0.87124  0.18147  0.99161  1.0000
  Ti  Ti61      1.0  0.63837  0.11918  0.35985  1.0000
  Ti  Ti62      1.0  0.94678  0.55314  0.75872  1.0000
  Ti  Ti63      1.0  0.99951  0.77590  0.84700  1.0000
  Ti  Ti64      1.0  0.71967  0.14623  0.92396  1.0000
  Ti  Ti65      1.0  0.33702  0.33520  0.76936  1.0000
  Ti  Ti66      1.0  0.39624  0.99792  0.04799  1.0000
  Ti  Ti67      1.0  0.30908  0.27377  0.29227  1.0000
  Ti  Ti68      1.0  0.75333  0.11159  0.26449  1.0000
  Ti  Ti69      1.0  0.05718  0.77896  0.53276  1.0000
  Ti  Ti70      1.0  0.26032  0.03268  0.52893  1.0000
  Ti  Ti71      1.0  0.21276  0.61342  0.36607  1.0000
  Ti  Ti72      1.0  0.92164  0.96236  0.89216  1.0000
  Ti  Ti73      1.0  0.64446  0.37758  0.31529  1.0000
  Ti  Ti74      1.0  0.69958  0.46481  0.06016  1.0000
  Ti  Ti75      1.0  0.95955  0.68848  0.25960  1.0000
  Ti  Ti76      1.0  0.59134  0.04004  0.43690  1.0000
  Ti  Ti77      1.0  0.90416  0.25221  0.20527  1.0000
  Ti  Ti78      1.0  0.97061  0.02848  0.71782  1.0000
  Ti  Ti79      1.0  0.45240  0.87926  0.37860  1.0000
  Ti  Ti80      1.0  0.73662  0.79469  0.71562  1.0000
  Ti  Ti81      1.0  0.17738  0.53935  0.46942  1.0000
  Ti  Ti82      1.0  0.69854  0.55893  0.68749  1.0000
  Ti  Ti83      1.0  0.92933  0.50121  0.25339  1.0000
  Ti  Ti84      1.0  0.28190  0.25459  0.49129  1.0000
  Ti  Ti85      1.0  0.20008  0.35619  0.68571  1.0000
  Ti  Ti86      1.0  0.85165  0.80516  0.07580  1.0000
  Ti  Ti87      1.0  0.68442  0.74421  0.35290  1.0000
  Ti  Ti88      1.0  0.11242  0.77181  0.78871  1.0000
  Ti  Ti89      1.0  0.98815  0.60912  0.40150  1.0000
  Ti  Ti90      1.0  0.14286  0.33974  0.98733  1.0000
  Ti  Ti91      1.0  0.73002  0.17501  0.57017  1.0000
  Ti  Ti92      1.0  0.29381  0.57353  0.19699  1.0000
  Ti  Ti93      1.0  0.35856  0.55058  0.68692  1.0000
  Ti  Ti94      1.0  0.98402  0.92163  0.52632  1.0000
  Ti  Ti95      1.0  0.41345  0.17778  0.86833  1.0000
  Ti  Ti96      1.0  0.51275  0.43672  0.69810  1.0000
  I   I1        1.0  0.91256  0.95496  0.95691  1.0000
  I   I2        1.0  0.49620  0.81543  0.60860  1.0000
  I   I3        1.0  0.00735  0.88315  0.23034  1.0000
  I   I4        1.0  0.37353  0.65850  0.67332  1.0000
  I   I5        1.0  0.60396  0.55994  0.09823  1.0000
  I   I6        1.0  0.39816  0.88745  0.79999  1.0000
  I   I7        1.0  0.21031  0.98530  0.60860  1.0000
  I   I8        1.0  0.76678  0.98498  0.81127  1.0000
  I   I9        1.0  0.07945  0.49936  0.72287  1.0000
  I   I10       1.0  0.63646  0.68002  0.49831  1.0000
  I   I11       1.0  0.06774  0.93712  0.95163  1.0000
  I   I12       1.0  0.39147  0.05604  0.66088  1.0000
  I   I13       1.0  0.92742  0.53509  0.78555  1.0000
  I   I14       1.0  0.04125  0.74955  0.83777  1.0000
  I   I15       1.0  0.89030  0.30530  0.09202  1.0000
  I   I16       1.0  0.57875  0.69558  0.52236  1.0000
  I   I17       1.0  0.38485  0.99535  0.98575  1.0000
  I   I18       1.0  0.68787  0.14311  0.90748  1.0000
  I   I19       1.0  0.03998  0.69770  0.82565  1.0000
  I   I20       1.0  0.05993  0.92606  0.04095  1.0000
  I   I21       1.0  0.13300  0.99124  0.46761  1.0000
  I   I22       1.0  0.23409  0.56798  0.52132  1.0000
  I   I23       1.0  0.11700  0.78351  0.85257  1.0000
  I   I24       1.0  0.26682  0.05585  0.57130  1.0000
  I   I25       1.0  0.77138  0.45935  0.13308  1.0000
  I   I26       1.0  0.98548  0.65224  0.27935  1.0000
  I   I27       1.0  0.70017  0.79794  0.02761  1.0000
  I   I28       1.0  0.47142  0.99786  0.07292  1.0000
  I   I29       1.0  0.96216  0.06549  0.72624  1.0000
  I   I30       1.0  0.12537  0.18151  0.20049  1.0000
  I   I31       1.0  0.75859  0.78018  0.77427  1.0000
  I   I32       1.0  0.18682  0.52960  0.40071  1.0000
  I   I33       1.0  0.49042  0.85484  0.37750  1.0000
  I   I34       1.0  0.62596  0.85896  0.07020  1.0000
  I   I35       1.0  0.26964  0.25797  0.42475  1.0000
  I   I36       1.0  0.75213  0.46993  0.43317  1.0000
  I   I37       1.0  0.19347  0.39120  0.66999  1.0000
  I   I38       1.0  0.97314  0.33150  0.56750  1.0000
  I   I39       1.0  0.17564  0.35924  0.74337  1.0000
  I   I40       1.0  0.84727  0.27601  0.49685  1.0000
  I   I41       1.0  0.00889  0.46363  0.03958  1.0000
  I   I42       1.0  0.61803  0.65095  0.57151  1.0000
  I   I43       1.0  0.39775  0.17825  0.50636  1.0000
  I   I44       1.0  0.88936  0.29220  0.47298  1.0000
  I   I45       1.0  0.75482  0.64760  0.30009  1.0000
  I   I46       1.0  0.38166  0.20485  0.90941  1.0000
  I   I47       1.0  0.91215  0.03316  0.94095  1.0000
  I   I48       1.0  0.96103  0.91284  0.47393  1.0000
  I   I49       1.0  0.08356  0.85095  0.20898  1.0000
  I   I50       1.0  0.52861  0.73826  0.76576  1.0000
  I   I51       1.0  0.52461  0.71443  0.68942  1.0000
  I   I52       1.0  0.70299  0.80335  0.74771  1.0000
  I   I53       1.0  0.42336  0.65672  0.70915  1.0000
  I   I54       1.0  0.40245  0.88859  0.92126  1.0000
  I   I55       1.0  0.86439  0.83189  0.09246  1.0000
  I   I56       1.0  0.13978  0.98744  0.57662  1.0000
  I   I57       1.0  0.40931  0.14922  0.82927  1.0000
  I   I58       1.0  0.60279  0.67187  0.43085  1.0000
  I   I59       1.0  0.19271  0.83028  0.74054  1.0000
  I   I60       1.0  0.90380  0.18418  0.01698  1.0000
  I   I61       1.0  0.94888  0.58843  0.89478  1.0000
  I   I62       1.0  0.97745  0.52214  0.72577  1.0000
  I   I63       1.0  0.01052  0.74709  0.89958  1.0000
  I   I64       1.0  0.14996  0.87690  0.59024  1.0000
  I   I65       1.0  0.30207  0.36681  0.77277  1.0000
  I   I66       1.0  0.41183  0.96075  0.08096  1.0000
  I   I67       1.0  0.55640  0.31491  0.88369  1.0000
  I   I68       1.0  0.07124  0.72593  0.92379  1.0000
  I   I69       1.0  0.06730  0.76125  0.47063  1.0000
  I   I70       1.0  0.26289  0.01573  0.46355  1.0000
  I   I71       1.0  0.20895  0.54625  0.46858  1.0000
  I   I72       1.0  0.85784  0.03677  0.88568  1.0000
  I   I73       1.0  0.69636  0.75094  0.03603  1.0000
  I   I74       1.0  0.13288  0.73205  0.57483  1.0000
  I   I75       1.0  0.11648  0.75128  0.47104  1.0000
  I   I76       1.0  0.94131  0.21791  0.19865  1.0000
  I   I77       1.0  0.84282  0.30074  0.11206  1.0000
  I   I78       1.0  0.79985  0.20791  0.13863  1.0000
  I   I79       1.0  0.55191  0.29452  0.02533  1.0000
  I   I80       1.0  0.86898  0.82472  0.56752  1.0000
  I   I81       1.0  0.50025  0.73986  0.12344  1.0000
  I   I82       1.0  0.70221  0.53178  0.74491  1.0000
  I   I83       1.0  0.95757  0.47081  0.23009  1.0000
  I   I84       1.0  0.26328  0.22804  0.63488  1.0000
  I   I85       1.0  0.25778  0.28920  0.74235  1.0000
  I   I86       1.0  0.43692  0.97627  0.03329  1.0000
  I   I87       1.0  0.93746  0.32721  0.65617  1.0000
  I   I88       1.0  0.59994  0.62692  0.41288  1.0000
  I   I89       1.0  0.75674  0.44958  0.53207  1.0000
  I   I90       1.0  0.02547  0.49848  0.93531  1.0000
  I   I91       1.0  0.76113  0.13978  0.57368  1.0000
  I   I92       1.0  0.29726  0.58625  0.25581  1.0000
  I   I93       1.0  0.84642  0.32335  0.55390  1.0000
  I   I94       1.0  0.94848  0.93666  0.55194  1.0000
  I   I95       1.0  0.87223  0.43639  0.99161  1.0000
  I   I96       1.0  0.53811  0.46346  0.60107  1.0000
  I   I97       1.0  0.04423  0.23312  0.49455  1.0000
  I   I98       1.0  0.87513  0.86370  0.49900  1.0000
  I   I99       1.0  0.54881  0.78327  0.57050  1.0000
  I   I100      1.0  0.22302  0.18546  0.73859  1.0000
  I   I101      1.0  0.08370  0.78006  0.74395  1.0000
  I   I102      1.0  0.40070  0.03615  0.55322  1.0000
  I   I103      1.0  0.83335  0.81046  0.14380  1.0000
  I   I104      1.0  0.55296  0.67268  0.94342  1.0000
  I   I105      1.0  0.11335  0.49294  0.61439  1.0000
  I   I106      1.0  0.66997  0.90968  0.12806  1.0000
  I   I107      1.0  0.54964  0.68541  0.43371  1.0000
  I   I108      1.0  0.74042  0.88208  0.10603  1.0000
  I   I109      1.0  0.85107  0.33260  0.17100  1.0000
  I   I110      1.0  0.98399  0.59484  0.83137  1.0000
  I   I111      1.0  0.99322  0.79535  0.78701  1.0000
  I   I112      1.0  0.73042  0.12573  0.86060  1.0000
  I   I113      1.0  0.34913  0.33450  0.83050  1.0000
  I   I114      1.0  0.30125  0.51844  0.52262  1.0000
  I   I115      1.0  0.28958  0.25396  0.31077  1.0000
  I   I116      1.0  0.28943  0.30930  0.26516  1.0000
  I   I117      1.0  0.72705  0.12518  0.21506  1.0000
  I   I118      1.0  0.47592  0.45646  0.71929  1.0000
  I   I119      1.0  0.33482  0.27467  0.33203  1.0000
  I   I120      1.0  0.87778  0.98710  0.90296  1.0000
  I   I121      1.0  0.61053  0.37996  0.31218  1.0000
  I   I122      1.0  0.72075  0.46270  0.18679  1.0000
  I   I123      1.0  0.95824  0.71203  0.30735  1.0000
  I   I124      1.0  0.16761  0.15618  0.27325  1.0000
  I   I125      1.0  0.56179  0.06330  0.48874  1.0000
  I   I126      1.0  0.93279  0.03576  0.70027  1.0000
  I   I127      1.0  0.53219  0.34618  0.08546  1.0000
  I   I128      1.0  0.17469  0.20340  0.80899  1.0000
  I   I129      1.0  0.19753  0.50053  0.49543  1.0000
  I   I130      1.0  0.30787  0.21722  0.50382  1.0000
  I   I131      1.0  0.66188  0.57186  0.71476  1.0000
  I   I132      1.0  0.67127  0.80962  0.13454  1.0000
  I   I133      1.0  0.97865  0.27594  0.59238  1.0000
  I   I134      1.0  0.43812  0.40498  0.84427  1.0000
  I   I135      1.0  0.36467  0.01997  0.08835  1.0000
  I   I136      1.0  0.92750  0.72901  0.53910  1.0000
  I   I137      1.0  0.43512  0.45463  0.17425  1.0000
  I   I138      1.0  0.96431  0.59412  0.42353  1.0000
  I   I139      1.0  0.73361  0.20214  0.60498  1.0000
  I   I140      1.0  0.30634  0.58850  0.14530  1.0000
  I   I141      1.0  0.34848  0.57106  0.62640  1.0000
  I   I142      1.0  0.00784  0.92987  0.55809  1.0000
  I   I143      1.0  0.07354  0.18556  0.56905  1.0000
  I   I144      1.0  0.51301  0.43314  0.61922  1.0000
  I   I145      1.0  0.90024  0.84586  0.60361  1.0000
  I   I146      1.0  0.49364  0.76636  0.64718  1.0000
  I   I147      1.0  0.10145  0.19455  0.52003  1.0000
  I   I148      1.0  0.40762  0.44604  0.25986  1.0000
  I   I149      1.0  0.39583  0.99959  0.63324  1.0000
  I   I150      1.0  0.55336  0.56408  0.14862  1.0000
  I   I151      1.0  0.50840  0.70843  0.03207  1.0000
  I   I152      1.0  0.18626  0.00778  0.49119  1.0000
  I   I153      1.0  0.05382  0.51701  0.63121  1.0000
  I   I154      1.0  0.12056  0.77135  0.26301  1.0000
  I   I155      1.0  0.11062  0.92879  0.04589  1.0000
  I   I156      1.0  0.87719  0.17521  0.92668  1.0000
  I   I157      1.0  0.89159  0.25364  0.13733  1.0000
  I   I158      1.0  0.97254  0.80367  0.88743  1.0000
  I   I159      1.0  0.61392  0.11815  0.41021  1.0000
  I   I160      1.0  0.69279  0.17768  0.96875  1.0000
  I   I161      1.0  0.35898  0.51390  0.53827  1.0000
  I   I162      1.0  0.68637  0.14441  0.79847  1.0000
  I   I163      1.0  0.56954  0.34168  0.79485  1.0000
  I   I164      1.0  0.74328  0.10045  0.32269  1.0000
  I   I165      1.0  0.19175  0.96333  0.53014  1.0000
  I   I166      1.0  0.51953  0.40138  0.68411  1.0000
  I   I167      1.0  0.19259  0.57956  0.59791  1.0000
  I   I168      1.0  0.58780  0.29941  0.50081  1.0000
  I   I169      1.0  0.68675  0.44366  0.02118  1.0000
  I   I170      1.0  0.71550  0.43095  0.11139  1.0000
  I   I171      1.0  0.65724  0.80885  0.96408  1.0000
  I   I172      1.0  0.61296  0.00640  0.46551  1.0000
  I   I173      1.0  0.96883  0.01388  0.65291  1.0000
  I   I174      1.0  0.17130  0.11403  0.20857  1.0000
  I   I175      1.0  0.83034  0.20965  0.23938  1.0000
  I   I176      1.0  0.44701  0.76944  0.08090  1.0000
  I   I177      1.0  0.43796  0.85283  0.36635  1.0000
  I   I178      1.0  0.68146  0.57304  0.62296  1.0000
  I   I179      1.0  0.91938  0.51192  0.18245  1.0000
  I   I180      1.0  0.21332  0.26463  0.61063  1.0000
  I   I181      1.0  0.21757  0.31474  0.82068  1.0000
  I   I182      1.0  0.90897  0.77075  0.19217  1.0000
  I   I183      1.0  0.72161  0.73273  0.34145  1.0000
  I   I184      1.0  0.13845  0.77925  0.74336  1.0000
  I   I185      1.0  0.96268  0.64817  0.41853  1.0000
  I   I186      1.0  0.90287  0.70682  0.45306  1.0000
  I   I187      1.0  0.31746  0.53678  0.19342  1.0000
  I   I188      1.0  0.82668  0.33818  0.45033  1.0000
  I   I189      1.0  0.66066  0.77608  0.38723  1.0000
  I   I190      1.0  0.82611  0.45192  0.92457  1.0000
  I   I191      1.0  0.13598  0.31295  0.95668  1.0000
  I   I192      1.0  0.09155  0.23012  0.59196  1.0000
  I   I193      1.0  0.03257  0.98874  0.82014  1.0000
  I   I194      1.0  0.06245  0.45510  0.00332  1.0000
  I   I195      1.0  0.04125  0.22988  0.60544  1.0000
  I   I196      1.0  0.17886  0.15687  0.74662  1.0000
  I   I197      1.0  0.45467  0.16111  0.48358  1.0000
  I   I198      1.0  0.55024  0.56614  0.03398  1.0000
  I   I199      1.0  0.48074  0.69557  0.09667  1.0000
  I   I200      1.0  0.77719  0.93105  0.78510  1.0000
  I   I201      1.0  0.12322  0.50507  0.69805  1.0000
  I   I202      1.0  0.13881  0.87399  0.76831  1.0000
  I   I203      1.0  0.08459  0.72415  0.53007  1.0000
  I   I204      1.0  0.73088  0.86114  0.19426  1.0000
  I   I205      1.0  0.97045  0.55166  0.81505  1.0000
  I   I206      1.0  0.17993  0.23106  0.74194  1.0000
  I   I207      1.0  0.89625  0.22921  0.25271  1.0000
  I   I208      1.0  0.15168  0.84747  0.67459  1.0000
  I   I209      1.0  0.29817  0.57279  0.54429  1.0000
  I   I210      1.0  0.45615  0.90025  0.32209  1.0000
  I   I211      1.0  0.22458  0.04549  0.52790  1.0000
  I   I212      1.0  0.07365  0.68286  0.90440  1.0000
  I   I213      1.0  0.03223  0.77094  0.56564  1.0000
  I   I214      1.0  0.57029  0.45596  0.67697  1.0000
  I   I215      1.0  0.19910  0.53285  0.57238  1.0000
  I   I216      1.0  0.32701  0.55305  0.72905  1.0000
  I   I217      1.0  0.76596  0.41123  0.14266  1.0000
  I   I218      1.0  0.92142  0.70483  0.24828  1.0000
  I   I219      1.0  0.65192  0.37344  0.38214  1.0000
  I   I220      1.0  0.91747  0.27956  0.20038  1.0000
  I   I221      1.0  0.02461  0.04573  0.79727  1.0000
  I   I222      1.0  0.58956  0.02890  0.37364  1.0000
  I   I223      1.0  0.77267  0.24337  0.21379  1.0000
  I   I224      1.0  0.44886  0.72970  0.15764  1.0000
  I   I225      1.0  0.57855  0.33024  0.00910  1.0000
  I   I226      1.0  0.73299  0.55714  0.67892  1.0000
  I   I227      1.0  0.61743  0.84800  0.17168  1.0000
  I   I228      1.0  0.24841  0.20746  0.54883  1.0000
  I   I229      1.0  0.33066  0.54955  0.46563  1.0000
  I   I230      1.0  0.40784  0.37807  0.87407  1.0000
  I   I231      1.0  0.92599  0.31301  0.56373  1.0000
  I   I232      1.0  0.19507  0.23963  0.83504  1.0000
  I   I233      1.0  0.88208  0.67434  0.03144  1.0000
  I   I234      1.0  0.13060  0.37835  0.95477  1.0000
  I   I235      1.0  0.10841  0.81612  0.30506  1.0000
  I   I236      1.0  0.38203  0.55852  0.71799  1.0000
  I   I237      1.0  0.70233  0.16419  0.58382  1.0000
  I   I238      1.0  0.45007  0.15097  0.83238  1.0000
  I   I239      1.0  0.51850  0.47368  0.70444  1.0000
  I   I240      1.0  0.93157  0.97051  0.42571  1.0000
  I   I241      1.0  0.92806  0.80064  0.52712  1.0000
  I   I242      1.0  0.55307  0.75035  0.66363  1.0000
  I   I243      1.0  0.79414  0.48069  0.99884  1.0000
  I   I244      1.0  0.13460  0.73481  0.78089  1.0000
  I   I245      1.0  0.39220  0.71233  0.71171  1.0000
  I   I246      1.0  0.59296  0.51265  0.08225  1.0000
  I   I247      1.0  0.81830  0.80370  0.05566  1.0000
  I   I248      1.0  0.17737  0.95357  0.62323  1.0000
  I   I249      1.0  0.07852  0.54899  0.69399  1.0000
  I   I250      1.0  0.20488  0.86210  0.68321  1.0000
  I   I251      1.0  0.11990  0.88209  0.03579  1.0000
  I   I252      1.0  0.84939  0.21840  0.98178  1.0000
  I   I253      1.0  0.91979  0.62270  0.81778  1.0000
  I   I254      1.0  0.24136  0.23124  0.77417  1.0000
  I   I255      1.0  0.64563  0.08875  0.31566  1.0000
  I   I256      1.0  0.35771  0.35299  0.74045  1.0000
  I   I257      1.0  0.20435  0.29089  0.72638  1.0000
  I   I258      1.0  0.66643  0.19271  0.85272  1.0000
  I   I259      1.0  0.32104  0.24942  0.23306  1.0000
  I   I260      1.0  0.76850  0.13497  0.27592  1.0000
  I   I261      1.0  0.15571  0.00607  0.65764  1.0000
  I   I262      1.0  0.54909  0.42243  0.72848  1.0000
  I   I263      1.0  0.20898  0.58167  0.35862  1.0000
  I   I264      1.0  0.27099  0.26565  0.56277  1.0000
  I   I265      1.0  0.73974  0.45784  0.05442  1.0000
  I   I266      1.0  0.08645  0.79054  0.52933  1.0000
  I   I267      1.0  0.64890  0.39769  0.26304  1.0000
  I   I268      1.0  0.44363  0.02405  0.99125  1.0000
  I   I269      1.0  0.97457  0.01272  0.78531  1.0000
  I   I270      1.0  0.39608  0.03164  0.03843  1.0000
  I   I271      1.0  0.79003  0.18709  0.25893  1.0000
  I   I272      1.0  0.14940  0.53035  0.48946  1.0000
  I   I273      1.0  0.52595  0.34168  0.97490  1.0000
  I   I274      1.0  0.83075  0.69526  0.04651  1.0000
  I   I275      1.0  0.65061  0.87219  0.17173  1.0000
  I   I276      1.0  0.30869  0.26631  0.50316  1.0000
  I   I277      1.0  0.69185  0.58448  0.74731  1.0000
  I   I278      1.0  0.43128  0.36126  0.77074  1.0000
  I   I279      1.0  0.76184  0.65854  0.41170  1.0000
  I   I280      1.0  0.47751  0.43330  0.25224  1.0000
  I   I281      1.0  0.87246  0.68147  0.13907  1.0000
  I   I282      1.0  0.87318  0.76512  0.48071  1.0000
  I   I283      1.0  0.07364  0.81074  0.18811  1.0000
  I   I284      1.0  0.60771  0.23362  0.48301  1.0000
  I   I285      1.0  0.67262  0.73588  0.29736  1.0000
  I   I286      1.0  0.42788  0.20206  0.85066  1.0000
  I   I287      1.0  0.92252  0.99763  0.86953  1.0000
  I   I288      1.0  0.99500  0.92239  0.45202  1.0000
  I   I289      1.0  0.13696  0.81335  0.23421  1.0000
  I   I290      1.0  0.14103  0.33617  0.05379  1.0000
  I   I291      1.0  0.52074  0.78322  0.71069  1.0000
  I   I292      1.0  0.42781  0.48066  0.27386  1.0000
  I   I293      1.0  0.38015  0.67139  0.76308  1.0000
  I   I294      1.0  0.34761  0.91704  0.86791  1.0000
  I   I295      1.0  0.89371  0.81978  0.16760  1.0000
  I   I296      1.0  0.82581  0.95024  0.76070  1.0000
  I   I297      1.0  0.14891  0.45050  0.67560  1.0000
  I   I298      1.0  0.39750  0.20838  0.42778  1.0000
  I   I299      1.0  0.19770  0.82440  0.61218  1.0000
  I   I300      1.0  0.37165  0.51450  0.66751  1.0000
  I   I301      1.0  0.66689  0.11240  0.39825  1.0000
  I   I302      1.0  0.95053  0.58826  0.74383  1.0000
  I   I303      1.0  0.56850  0.62744  0.48125  1.0000
  I   I304      1.0  0.72348  0.17810  0.87879  1.0000
  I   I305      1.0  0.18527  0.88668  0.76624  1.0000
  I   I306      1.0  0.85770  0.80452  0.22708  1.0000
  I   I307      1.0  0.61096  0.31508  0.88914  1.0000
  I   I308      1.0  0.02248  0.80179  0.84995  1.0000
  I   I309      1.0  0.13243  0.03181  0.53171  1.0000
  I   I310      1.0  0.04151  0.83139  0.26703  1.0000
  I   I311      1.0  0.22787  0.60110  0.42979  1.0000
  I   I312      1.0  0.91823  0.94432  0.83971  1.0000
  I   I313      1.0  0.66263  0.34207  0.29348  1.0000
  I   I314      1.0  0.67291  0.48475  0.10618  1.0000
  I   I315      1.0  0.97686  0.69352  0.20358  1.0000
  I   I316      1.0  0.62104  0.04886  0.45062  1.0000
  I   I317      1.0  0.42629  0.03515  0.11811  1.0000
  I   I318      1.0  0.01271  0.00970  0.72804  1.0000
  I   I319      1.0  0.44923  0.88845  0.44666  1.0000
  I   I320      1.0  0.17824  0.19308  0.67985  1.0000
  I   I321      1.0  0.58088  0.67127  0.03374  1.0000
  I   I322      1.0  0.73238  0.50488  0.51642  1.0000
  I   I323      1.0  0.94171  0.52823  0.26479  1.0000
  I   I324      1.0  0.23867  0.25545  0.50354  1.0000
  I   I325      1.0  0.23954  0.33009  0.69972  1.0000
  I   I326      1.0  0.88523  0.77484  0.09050  1.0000
  I   I327      1.0  0.80562  0.61376  0.35186  1.0000
  I   I328      1.0  0.62186  0.62241  0.49665  1.0000
  I   I329      1.0  0.97429  0.61101  0.33818  1.0000
  I   I330      1.0  0.18064  0.31735  0.97205  1.0000
  I   I331      1.0  0.67597  0.72105  0.39439  1.0000
  I   I332      1.0  0.41930  0.14844  0.41654  1.0000
  I   I333      1.0  0.71328  0.45282  0.48977  1.0000
  I   I334      1.0  0.00256  0.88221  0.54466  1.0000
  I   I335      1.0  0.82948  0.50037  0.96003  1.0000
  I   I336      1.0  0.57685  0.41307  0.63012  1.0000
  I   I337      1.0  0.03315  0.87582  0.15424  1.0000
  I   I338      1.0  0.02839  0.43912  0.93786  1.0000
  I   I339      1.0  0.54512  0.81088  0.66345  1.0000
  I   I340      1.0  0.72496  0.83218  0.70270  1.0000
  I   I341      1.0  0.44643  0.00050  0.62310  1.0000
  I   I342      1.0  0.38200  0.93893  0.83434  1.0000
  I   I343      1.0  0.53561  0.64817  0.03028  1.0000
  I   I344      1.0  0.81341  0.93945  0.86847  1.0000
  I   I345      1.0  0.09968  0.44744  0.68829  1.0000
  I   I346      1.0  0.27706  0.99688  0.56052  1.0000
  I   I347      1.0  0.15389  0.89865  0.67886  1.0000
  I   I348      1.0  0.84473  0.17065  0.02407  1.0000
  I   I349      1.0  0.62745  0.15773  0.34948  1.0000
  I   I350      1.0  0.91722  0.57243  0.71626  1.0000
  I   I351      1.0  0.24160  0.18505  0.82667  1.0000
  I   I352      1.0  0.74411  0.12871  0.97520  1.0000
  I   I353      1.0  0.34045  0.30136  0.76532  1.0000
  I   I354      1.0  0.85543  0.81004  0.00813  1.0000
  I   I355      1.0  0.59900  0.28583  0.80069  1.0000
  I   I356      1.0  0.78225  0.08242  0.22356  1.0000
  I   I357      1.0  0.07560  0.76598  0.59778  1.0000
  I   I358      1.0  0.57215  0.24946  0.55830  1.0000
  I   I359      1.0  0.19902  0.65258  0.37158  1.0000
  I   I360      1.0  0.95899  0.95042  0.90735  1.0000
  I   I361      1.0  0.71393  0.75911  0.93928  1.0000
  I   I362      1.0  0.67879  0.49571  0.02214  1.0000
  I   I363      1.0  0.02767  0.81412  0.50400  1.0000
  I   I364      1.0  0.16749  0.17967  0.17225  1.0000
  I   I365      1.0  0.86807  0.28443  0.22761  1.0000
  I   I366      1.0  0.98935  0.03800  0.86213  1.0000
  I   I367      1.0  0.41126  0.90029  0.38128  1.0000
  I   I368      1.0  0.73179  0.78121  0.65513  1.0000
  I   I369      1.0  0.16359  0.57754  0.49418  1.0000
  I   I370      1.0  0.85485  0.73624  0.08380  1.0000
  I   I371      1.0  0.90175  0.50849  0.30646  1.0000
  I   I372      1.0  0.55381  0.27478  0.46779  1.0000
  I   I373      1.0  0.18336  0.34891  0.63692  1.0000
  I   I374      1.0  0.38385  0.41467  0.78157  1.0000
  I   I375      1.0  0.75392  0.60999  0.37967  1.0000
  I   I376      1.0  0.23338  0.61349  0.30979  1.0000
  I   I377      1.0  0.02419  0.60683  0.37835  1.0000
  I   I378      1.0  0.87407  0.74109  0.57026  1.0000
  I   I379      1.0  0.74248  0.18170  0.50939  1.0000
  I   I380      1.0  0.25747  0.58280  0.18203  1.0000
  I   I381      1.0  0.70081  0.85873  0.09261  1.0000
  I   I382      1.0  0.95982  0.97978  0.50759  1.0000
  I   I383      1.0  0.43061  0.16267  0.92739  1.0000
  I   I384      1.0  0.89374  0.00491  0.98016  1.0000
