data_image0
_chemical_formula_structural       Ti96I384
_chemical_formula_sum              "Ti96 I384"
_cell_length_a       63.5565
_cell_length_b       63.2496
_cell_length_c       30.8885
_cell_angle_alpha    88.7757
_cell_angle_beta     88.7757
_cell_angle_gamma    62.1586

_space_group_name_H-M_alt    "P 1"
_space_group_IT_number       1

loop_
  _space_group_symop_operation_xyz
  'x, y, z'

loop_
  _atom_site_type_symbol
  _atom_site_label
  _atom_site_symmetry_multiplicity
  _atom_site_fract_x
  _atom_site_fract_y
  _atom_site_fract_z
  _atom_site_occupancy
  Ti  Ti1       1.0  0.53672  0.94076  0.51386  1.0000
  Ti  Ti2       1.0  0.48806  0.14440  0.37293  1.0000
  Ti  Ti3       1.0  0.92085  0.59344  0.02475  1.0000
  Ti  Ti4       1.0  0.75582  0.25526  0.09739  1.0000
  Ti  Ti5       1.0  0.25894  0.79614  0.93502  1.0000
  Ti  Ti6       1.0  0.22495  0.22872  0.36034  1.0000
  Ti  Ti7       1.0  0.03413  0.89199  0.98599  1.0000
  Ti  Ti8       1.0  0.38065  0.49208  0.00200  1.0000
  Ti  Ti9       1.0  0.31504  0.93047  0.79372  1.0000
  Ti  Ti10      1.0  0.80933  0.74832  0.26023  1.0000
  Ti  Ti11      1.0  0.40997  0.36877  0.70882  1.0000
  Ti  Ti12      1.0  0.20876  0.61856  0.44512  1.0000
  Ti  Ti13      1.0  0.24739  0.44086  0.25344  1.0000
  Ti  Ti14      1.0  0.08411  0.97846  0.80612  1.0000
  Ti  Ti15      1.0  0.44262  0.95758  0.24978  1.0000
  Ti  Ti16      1.0  0.63477  0.83718  0.51101  1.0000
  Ti  Ti17      1.0  0.25643  0.25568  0.09684  1.0000
  Ti  Ti18      1.0  0.93358  0.65839  0.74485  1.0000
  Ti  Ti19      1.0  0.88609  0.82594  0.44650  1.0000
  Ti  Ti20      1.0  0.25361  0.02761  0.15129  1.0000
  Ti  Ti21      1.0  0.92882  0.15134  0.26152  1.0000
  Ti  Ti22      1.0  0.59184  0.52352  0.91209  1.0000
  Ti  Ti23      1.0  0.75827  0.87342  0.89862  1.0000
  Ti  Ti24      1.0  0.17162  0.69353  0.74983  1.0000
  Ti  Ti25      1.0  0.04689  0.43059  0.62532  1.0000
  Ti  Ti26      1.0  0.04366  0.13943  0.22871  1.0000
  Ti  Ti27      1.0  0.12883  0.64387  0.04573  1.0000
  Ti  Ti28      1.0  0.56400  0.48446  0.29894  1.0000
  Ti  Ti29      1.0  0.08806  0.91951  0.19472  1.0000
  Ti  Ti30      1.0  0.88328  0.42955  0.17909  1.0000
  Ti  Ti31      1.0  0.81310  0.39548  0.62986  1.0000
  Ti  Ti32      1.0  0.67545  0.09263  0.21451  1.0000
  Ti  Ti33      1.0  0.35691  0.92497  0.41157  1.0000
  Ti  Ti34      1.0  0.61919  0.68080  0.86478  1.0000
  Ti  Ti35      1.0  0.84419  0.46734  0.81653  1.0000
  Ti  Ti36      1.0  0.01785  0.49605  0.38232  1.0000
  Ti  Ti37      1.0  0.10141  0.18204  0.38958  1.0000
  Ti  Ti38      1.0  0.39148  0.37443  0.41779  1.0000
  Ti  Ti39      1.0  0.58403  0.27187  0.26734  1.0000
  Ti  Ti40      1.0  0.64880  0.77324  0.27748  1.0000
  Ti  Ti41      1.0  0.56596  0.71793  0.46870  1.0000
  Ti  Ti42      1.0  0.62956  0.13673  0.72718  1.0000
  Ti  Ti43      1.0  0.49082  0.08739  0.07565  1.0000
  Ti  Ti44      1.0  0.75253  0.63865  0.01105  1.0000
  Ti  Ti45      1.0  0.38832  0.65952  0.96535  1.0000
  Ti  Ti46      1.0  0.19639  0.28380  0.88784  1.0000
  Ti  Ti47      1.0  0.05222  0.16915  0.88274  1.0000
  Ti  Ti48      1.0  0.44352  0.59852  0.54699  1.0000
  Ti  Ti49      1.0  0.51665  0.89464  0.51485  1.0000
  Ti  Ti50      1.0  0.32807  0.99158  0.66846  1.0000
  Ti  Ti51      1.0  0.53468  0.12171  0.32209  1.0000
  Ti  Ti52      1.0  0.76623  0.31919  0.10516  1.0000
  Ti  Ti53      1.0  0.22984  0.71373  0.18640  1.0000
  Ti  Ti54      1.0  0.23282  0.15035  0.41403  1.0000
  Ti  Ti55      1.0  0.00218  0.85922  0.94629  1.0000
  Ti  Ti56      1.0  0.38700  0.52571  0.10306  1.0000
  Ti  Ti57      1.0  0.35456  0.94102  0.88732  1.0000
  Ti  Ti58      1.0  0.48414  0.09366  0.93130  1.0000
  Ti  Ti59      1.0  0.84148  0.68267  0.34412  1.0000
  Ti  Ti60      1.0  0.24322  0.58233  0.57111  1.0000
  Ti  Ti61      1.0  0.49673  0.96954  0.28274  1.0000
  Ti  Ti62      1.0  0.22413  0.41483  0.36727  1.0000
  Ti  Ti63      1.0  0.15716  0.94944  0.72563  1.0000
  Ti  Ti64      1.0  0.95243  0.68113  0.66046  1.0000
  Ti  Ti65      1.0  0.08935  0.55603  0.76799  1.0000
  Ti  Ti66      1.0  0.41422  0.48323  0.46359  1.0000
  Ti  Ti67      1.0  0.87596  0.88484  0.50392  1.0000
  Ti  Ti68      1.0  0.18073  0.08237  0.67486  1.0000
  Ti  Ti69      1.0  0.86624  0.20328  0.23616  1.0000
  Ti  Ti70      1.0  0.61269  0.53261  0.04926  1.0000
  Ti  Ti71      1.0  0.76178  0.88740  0.01366  1.0000
  Ti  Ti72      1.0  0.94107  0.03166  0.16645  1.0000
  Ti  Ti73      1.0  0.17292  0.59012  0.01992  1.0000
  Ti  Ti74      1.0  0.11091  0.41743  0.63873  1.0000
  Ti  Ti75      1.0  0.09345  0.07280  0.26251  1.0000
  Ti  Ti76      1.0  0.85368  0.40415  0.14145  1.0000
  Ti  Ti77      1.0  0.53169  0.46973  0.36216  1.0000
  Ti  Ti78      1.0  0.05079  0.97725  0.23565  1.0000
  Ti  Ti79      1.0  0.24168  0.91775  0.46027  1.0000
  Ti  Ti80      1.0  0.84797  0.40045  0.56907  1.0000
  Ti  Ti81      1.0  0.64046  0.11924  0.14743  1.0000
  Ti  Ti82      1.0  0.58735  0.66024  0.84554  1.0000
  Ti  Ti83      1.0  0.85738  0.51409  0.87048  1.0000
  Ti  Ti84      1.0  0.99250  0.54681  0.30751  1.0000
  Ti  Ti85      1.0  0.08597  0.27110  0.37289  1.0000
  Ti  Ti86      1.0  0.40070  0.42576  0.43353  1.0000
  Ti  Ti87      1.0  0.60448  0.31493  0.23827  1.0000
  Ti  Ti88      1.0  0.69920  0.70590  0.33986  1.0000
  Ti  Ti89      1.0  0.56575  0.75970  0.55942  1.0000
  Ti  Ti90      1.0  0.68470  0.09105  0.75303  1.0000
  Ti  Ti91      1.0  0.42337  0.66533  0.86472  1.0000
  Ti  Ti92      1.0  0.87129  0.12565  0.57660  1.0000
  Ti  Ti93      1.0  0.75918  0.62886  0.14900  1.0000
  Ti  Ti94      1.0  0.41597  0.58747  0.65902  1.0000
  Ti  Ti95      1.0  0.12082  0.34650  0.92038  1.0000
  Ti  Ti96      1.0  0.09886  0.15190  0.94405  1.0000
  I   I1        1.0  0.10272  0.14880  0.84497  1.0000
  I   I2        1.0  0.50780  0.09869  0.31607  1.0000
  I   I3        1.0  0.49445  0.93375  0.46488  1.0000
  I   I4        1.0  0.24092  0.74857  0.21161  1.0000
  I   I5        1.0  0.18790  0.27172  0.35882  1.0000
  I   I6        1.0  0.26952  0.11153  0.43370  1.0000
  I   I7        1.0  0.34901  0.55220  0.15841  1.0000
  I   I8        1.0  0.35522  0.53564  0.03667  1.0000
  I   I9        1.0  0.36109  0.92220  0.96414  1.0000
  I   I10       1.0  0.81688  0.73356  0.34659  1.0000
  I   I11       1.0  0.43962  0.33423  0.75617  1.0000
  I   I12       1.0  0.24521  0.79902  0.85292  1.0000
  I   I13       1.0  0.24584  0.44380  0.34788  1.0000
  I   I14       1.0  0.20167  0.94214  0.73279  1.0000
  I   I15       1.0  0.42937  0.96301  0.16908  1.0000
  I   I16       1.0  0.64240  0.86222  0.44534  1.0000
  I   I17       1.0  0.44944  0.49529  0.45343  1.0000
  I   I18       1.0  0.93469  0.70121  0.59082  1.0000
  I   I19       1.0  0.28284  0.03304  0.08955  1.0000
  I   I20       1.0  0.37047  0.40171  0.73406  1.0000
  I   I21       1.0  0.91020  0.19942  0.28031  1.0000
  I   I22       1.0  0.76236  0.83059  0.89156  1.0000
  I   I23       1.0  0.79867  0.84926  0.96964  1.0000
  I   I24       1.0  0.61340  0.49632  0.98667  1.0000
  I   I25       1.0  0.13583  0.44072  0.63201  1.0000
  I   I26       1.0  0.09543  0.09774  0.18564  1.0000
  I   I27       1.0  0.10030  0.68180  0.00558  1.0000
  I   I28       1.0  0.54451  0.45578  0.44505  1.0000
  I   I29       1.0  0.06735  0.00983  0.23499  1.0000
  I   I30       1.0  0.86600  0.37054  0.09192  1.0000
  I   I31       1.0  0.82153  0.44213  0.53663  1.0000
  I   I32       1.0  0.62255  0.14610  0.08283  1.0000
  I   I33       1.0  0.21597  0.93417  0.39519  1.0000
  I   I34       1.0  0.83053  0.44402  0.87657  1.0000
  I   I35       1.0  0.94549  0.56627  0.30928  1.0000
  I   I36       1.0  0.62389  0.71564  0.83000  1.0000
  I   I37       1.0  0.12927  0.14556  0.43970  1.0000
  I   I38       1.0  0.55774  0.32234  0.27899  1.0000
  I   I39       1.0  0.11465  0.24284  0.30826  1.0000
  I   I40       1.0  0.59412  0.77429  0.57885  1.0000
  I   I41       1.0  0.72243  0.07374  0.80282  1.0000
  I   I42       1.0  0.63558  0.81371  0.32150  1.0000
  I   I43       1.0  0.45326  0.08947  0.04676  1.0000
  I   I44       1.0  0.80755  0.60397  0.15919  1.0000
  I   I45       1.0  0.42776  0.70575  0.86445  1.0000
  I   I46       1.0  0.23373  0.28864  0.90457  1.0000
  I   I47       1.0  0.07946  0.16649  0.01655  1.0000
  I   I48       1.0  0.41970  0.64055  0.50233  1.0000
  I   I49       1.0  0.52764  0.85918  0.46099  1.0000
  I   I50       1.0  0.44260  0.17279  0.37791  1.0000
  I   I51       1.0  0.50122  0.11519  0.43978  1.0000
  I   I52       1.0  0.77108  0.20772  0.11168  1.0000
  I   I53       1.0  0.25791  0.69263  0.11654  1.0000
  I   I54       1.0  0.25500  0.17954  0.37755  1.0000
  I   I55       1.0  0.04916  0.84764  0.93635  1.0000
  I   I56       1.0  0.40607  0.48970  0.16826  1.0000
  I   I57       1.0  0.34618  0.90629  0.86482  1.0000
  I   I58       1.0  0.82857  0.74896  0.18163  1.0000
  I   I59       1.0  0.81894  0.77898  0.29018  1.0000
  I   I60       1.0  0.21010  0.58241  0.51300  1.0000
  I   I61       1.0  0.22623  0.41263  0.45020  1.0000
  I   I62       1.0  0.17904  0.42056  0.37236  1.0000
  I   I63       1.0  0.07697  0.98377  0.89386  1.0000
  I   I64       1.0  0.62229  0.81567  0.45558  1.0000
  I   I65       1.0  0.06504  0.60308  0.77040  1.0000
  I   I66       1.0  0.41177  0.50108  0.53928  1.0000
  I   I67       1.0  0.83745  0.92117  0.47308  1.0000
  I   I68       1.0  0.22194  0.07127  0.12570  1.0000
  I   I69       1.0  0.91025  0.12022  0.27735  1.0000
  I   I70       1.0  0.60656  0.51142  0.12051  1.0000
  I   I71       1.0  0.71514  0.90106  0.87552  1.0000
  I   I72       1.0  0.90177  0.05176  0.13106  1.0000
  I   I73       1.0  0.09460  0.62672  0.04548  1.0000
  I   I74       1.0  0.00720  0.17213  0.26709  1.0000
  I   I75       1.0  0.13414  0.03734  0.23435  1.0000
  I   I76       1.0  0.57352  0.43104  0.32601  1.0000
  I   I77       1.0  0.49968  0.45537  0.34042  1.0000
  I   I78       1.0  0.11788  0.92931  0.23300  1.0000
  I   I79       1.0  0.36841  0.88654  0.37036  1.0000
  I   I80       1.0  0.85067  0.40110  0.65719  1.0000
  I   I81       1.0  0.69814  0.09982  0.27287  1.0000
  I   I82       1.0  0.61739  0.68842  0.94964  1.0000
  I   I83       1.0  0.88181  0.53511  0.84877  1.0000
  I   I84       1.0  0.97473  0.52828  0.43092  1.0000
  I   I85       1.0  0.11840  0.16029  0.31378  1.0000
  I   I86       1.0  0.38182  0.40777  0.49241  1.0000
  I   I87       1.0  0.58133  0.26197  0.35640  1.0000
  I   I88       1.0  0.67673  0.71722  0.25924  1.0000
  I   I89       1.0  0.59901  0.70972  0.53875  1.0000
  I   I90       1.0  0.67632  0.13397  0.71939  1.0000
  I   I91       1.0  0.37114  0.69479  0.89595  1.0000
  I   I92       1.0  0.83411  0.11936  0.57376  1.0000
  I   I93       1.0  0.76951  0.59917  0.96178  1.0000
  I   I94       1.0  0.39315  0.61343  0.57775  1.0000
  I   I95       1.0  0.09148  0.36506  0.86055  1.0000
  I   I96       1.0  0.14139  0.12296  0.96749  1.0000
  I   I97       1.0  0.94141  0.60333  0.95611  1.0000
  I   I98       1.0  0.55865  0.89571  0.47666  1.0000
  I   I99       1.0  0.56824  0.10689  0.38619  1.0000
  I   I100      1.0  0.79961  0.33075  0.12327  1.0000
  I   I101      1.0  0.72567  0.26284  0.16525  1.0000
  I   I102      1.0  0.29639  0.80453  0.93325  1.0000
  I   I103      1.0  0.01725  0.93141  0.03409  1.0000
  I   I104      1.0  0.95798  0.88153  0.97587  1.0000
  I   I105      1.0  0.30808  0.97579  0.89991  1.0000
  I   I106      1.0  0.27197  0.54140  0.53349  1.0000
  I   I107      1.0  0.88487  0.67383  0.36349  1.0000
  I   I108      1.0  0.18973  0.65415  0.50177  1.0000
  I   I109      1.0  0.47675  0.93914  0.31310  1.0000
  I   I110      1.0  0.27581  0.40912  0.19727  1.0000
  I   I111      1.0  0.05129  0.96548  0.80498  1.0000
  I   I112      1.0  0.92894  0.65295  0.65681  1.0000
  I   I113      1.0  0.11219  0.53724  0.83982  1.0000
  I   I114      1.0  0.27005  0.22879  0.16350  1.0000
  I   I115      1.0  0.91786  0.79770  0.39243  1.0000
  I   I116      1.0  0.89190  0.87209  0.42094  1.0000
  I   I117      1.0  0.16097  0.12542  0.64236  1.0000
  I   I118      1.0  0.59714  0.56783  0.10140  1.0000
  I   I119      1.0  0.57458  0.55517  0.84247  1.0000
  I   I120      1.0  0.93046  0.00466  0.22014  1.0000
  I   I121      1.0  0.16325  0.55737  0.99242  1.0000
  I   I122      1.0  0.00832  0.46608  0.62951  1.0000
  I   I123      1.0  0.03611  0.15079  0.15117  1.0000
  I   I124      1.0  0.83778  0.45090  0.17389  1.0000
  I   I125      1.0  0.59334  0.47645  0.23935  1.0000
  I   I126      1.0  0.05946  0.93123  0.26680  1.0000
  I   I127      1.0  0.31940  0.92781  0.45720  1.0000
  I   I128      1.0  0.78690  0.39995  0.56197  1.0000
  I   I129      1.0  0.62522  0.08360  0.15614  1.0000
  I   I130      1.0  0.99862  0.49906  0.28499  1.0000
  I   I131      1.0  0.61818  0.66021  0.78425  1.0000
  I   I132      1.0  0.83910  0.53508  0.94694  1.0000
  I   I133      1.0  0.58300  0.23534  0.23043  1.0000
  I   I134      1.0  0.41520  0.34335  0.35552  1.0000
  I   I135      1.0  0.43746  0.37254  0.43172  1.0000
  I   I136      1.0  0.58670  0.15680  0.76491  1.0000
  I   I137      1.0  0.69843  0.70742  0.42614  1.0000
  I   I138      1.0  0.53281  0.73161  0.40888  1.0000
  I   I139      1.0  0.39831  0.62910  0.02925  1.0000
  I   I140      1.0  0.86202  0.15194  0.64183  1.0000
  I   I141      1.0  0.76095  0.59910  0.07554  1.0000
  I   I142      1.0  0.45730  0.56148  0.61065  1.0000
  I   I143      1.0  0.11193  0.38393  0.96599  1.0000
  I   I144      1.0  0.02016  0.16214  0.93098  1.0000
  I   I145      1.0  0.53482  0.87767  0.58874  1.0000
  I   I146      1.0  0.50264  0.17479  0.38723  1.0000
  I   I147      1.0  0.88363  0.63500  0.03983  1.0000
  I   I148      1.0  0.78972  0.26507  0.11995  1.0000
  I   I149      1.0  0.26540  0.76501  0.99282  1.0000
  I   I150      1.0  0.23357  0.17179  0.48377  1.0000
  I   I151      1.0  0.00091  0.90296  0.92182  1.0000
  I   I152      1.0  0.40520  0.48951  0.93545  1.0000
  I   I153      1.0  0.32881  0.89943  0.72730  1.0000
  I   I154      1.0  0.50785  0.04952  0.92194  1.0000
  I   I155      1.0  0.42953  0.39477  0.69435  1.0000
  I   I156      1.0  0.22605  0.56579  0.63403  1.0000
  I   I157      1.0  0.41595  0.93869  0.28220  1.0000
  I   I158      1.0  0.17221  0.91342  0.67084  1.0000
  I   I159      1.0  0.46918  0.99467  0.35080  1.0000
  I   I160      1.0  0.99266  0.64357  0.64019  1.0000
  I   I161      1.0  0.22650  0.29441  0.14015  1.0000
  I   I162      1.0  0.97798  0.70141  0.68585  1.0000
  I   I163      1.0  0.88621  0.91059  0.55575  1.0000
  I   I164      1.0  0.21260  0.08191  0.72847  1.0000
  I   I165      1.0  0.86622  0.23427  0.17454  1.0000
  I   I166      1.0  0.61179  0.48930  0.86238  1.0000
  I   I167      1.0  0.77395  0.87705  0.82402  1.0000
  I   I168      1.0  0.21177  0.65686  0.72433  1.0000
  I   I169      1.0  0.08057  0.43705  0.57031  1.0000
  I   I170      1.0  0.07213  0.38731  0.66307  1.0000
  I   I171      1.0  0.13007  0.61931  0.96966  1.0000
  I   I172      1.0  0.87419  0.42430  0.25974  1.0000
  I   I173      1.0  0.01768  0.01422  0.28814  1.0000
  I   I174      1.0  0.91777  0.37806  0.17642  1.0000
  I   I175      1.0  0.84539  0.34976  0.61127  1.0000
  I   I176      1.0  0.60128  0.15050  0.19179  1.0000
  I   I177      1.0  0.24836  0.94775  0.50696  1.0000
  I   I178      1.0  0.57794  0.62471  0.82851  1.0000
  I   I179      1.0  0.81104  0.52086  0.86150  1.0000
  I   I180      1.0  0.00254  0.58218  0.31444  1.0000
  I   I181      1.0  0.07692  0.29510  0.44735  1.0000
  I   I182      1.0  0.43503  0.43471  0.48880  1.0000
  I   I183      1.0  0.63110  0.26265  0.26981  1.0000
  I   I184      1.0  0.64782  0.74628  0.35604  1.0000
  I   I185      1.0  0.59499  0.67764  0.44274  1.0000
  I   I186      1.0  0.66427  0.06373  0.77688  1.0000
  I   I187      1.0  0.90423  0.08400  0.59447  1.0000
  I   I188      1.0  0.76489  0.66544  0.96123  1.0000
  I   I189      1.0  0.34774  0.65828  0.96048  1.0000
  I   I190      1.0  0.21585  0.23740  0.88795  1.0000
  I   I191      1.0  0.29277  0.01065  0.72812  1.0000
  I   I192      1.0  0.43484  0.60189  0.72309  1.0000
  I   I193      1.0  0.47688  0.89917  0.54561  1.0000
  I   I194      1.0  0.31783  0.01229  0.59204  1.0000
  I   I195      1.0  0.91553  0.55763  0.99680  1.0000
  I   I196      1.0  0.76389  0.24832  0.00983  1.0000
  I   I197      1.0  0.47063  0.12204  0.12804  1.0000
  I   I198      1.0  0.20230  0.19932  0.38350  1.0000
  I   I199      1.0  0.98906  0.85487  0.86503  1.0000
  I   I200      1.0  0.39394  0.56178  0.08414  1.0000
  I   I201      1.0  0.28783  0.90950  0.82445  1.0000
  I   I202      1.0  0.82960  0.69356  0.25463  1.0000
  I   I203      1.0  0.95383  0.14578  0.33205  1.0000
  I   I204      1.0  0.17045  0.63347  0.40353  1.0000
  I   I205      1.0  0.25417  0.37018  0.35862  1.0000
  I   I206      1.0  0.10972  0.94660  0.73525  1.0000
  I   I207      1.0  0.48628  0.95264  0.20332  1.0000
  I   I208      1.0  0.67384  0.80335  0.54064  1.0000
  I   I209      1.0  0.22053  0.24681  0.08127  1.0000
  I   I210      1.0  0.90840  0.70899  0.71895  1.0000
  I   I211      1.0  0.84816  0.86759  0.54064  1.0000
  I   I212      1.0  0.24884  0.03850  0.23097  1.0000
  I   I213      1.0  0.83072  0.20078  0.20124  1.0000
  I   I214      1.0  0.65853  0.51657  0.04458  1.0000
  I   I215      1.0  0.75292  0.91500  0.93810  1.0000
  I   I216      1.0  0.13112  0.69103  0.75348  1.0000
  I   I217      1.0  0.04368  0.41733  0.54492  1.0000
  I   I218      1.0  0.09553  0.10117  0.32137  1.0000
  I   I219      1.0  0.21898  0.55694  0.02303  1.0000
  I   I220      1.0  0.58386  0.47598  0.38420  1.0000
  I   I221      1.0  0.07985  0.88326  0.17912  1.0000
  I   I222      1.0  0.89177  0.46559  0.16238  1.0000
  I   I223      1.0  0.87253  0.42328  0.56529  1.0000
  I   I224      1.0  0.65498  0.14611  0.19296  1.0000
  I   I225      1.0  0.39172  0.92177  0.46033  1.0000
  I   I226      1.0  0.55018  0.68655  0.79149  1.0000
  I   I227      1.0  0.88309  0.43282  0.77228  1.0000
  I   I228      1.0  0.04499  0.48462  0.45476  1.0000
  I   I229      1.0  0.04211  0.27811  0.35323  1.0000
  I   I230      1.0  0.39899  0.34525  0.48111  1.0000
  I   I231      1.0  0.62250  0.32171  0.30945  1.0000
  I   I232      1.0  0.60744  0.78537  0.25160  1.0000
  I   I233      1.0  0.56546  0.76592  0.47103  1.0000
  I   I234      1.0  0.62408  0.17331  0.67647  1.0000
  I   I235      1.0  0.49329  0.11693  0.87364  1.0000
  I   I236      1.0  0.73199  0.60673  0.17970  1.0000
  I   I237      1.0  0.41402  0.62761  0.90675  1.0000
  I   I238      1.0  0.20415  0.28491  0.79979  1.0000
  I   I239      1.0  0.08742  0.11721  0.93693  1.0000
  I   I240      1.0  0.42580  0.54745  0.70040  1.0000
  I   I241      1.0  0.49710  0.97803  0.54569  1.0000
  I   I242      1.0  0.49734  0.16045  0.28015  1.0000
  I   I243      1.0  0.94914  0.57855  0.09321  1.0000
  I   I244      1.0  0.72658  0.35336  0.14384  1.0000
  I   I245      1.0  0.26129  0.67191  0.22154  1.0000
  I   I246      1.0  0.23068  0.23422  0.43936  1.0000
  I   I247      1.0  0.02497  0.87524  0.05970  1.0000
  I   I248      1.0  0.40036  0.45416  0.05170  1.0000
  I   I249      1.0  0.37450  0.96962  0.88290  1.0000
  I   I250      1.0  0.82750  0.67753  0.42592  1.0000
  I   I251      1.0  0.39706  0.35129  0.64619  1.0000
  I   I252      1.0  0.25468  0.60469  0.48937  1.0000
  I   I253      1.0  0.21442  0.47179  0.20090  1.0000
  I   I254      1.0  0.14583  0.98340  0.66564  1.0000
  I   I255      1.0  0.49220  0.00695  0.23672  1.0000
  I   I256      1.0  0.10748  0.54957  0.69123  1.0000
  I   I257      1.0  0.28961  0.22803  0.04332  1.0000
  I   I258      1.0  0.96951  0.65515  0.78054  1.0000
  I   I259      1.0  0.91693  0.83684  0.50736  1.0000
  I   I260      1.0  0.20041  0.05539  0.60895  1.0000
  I   I261      1.0  0.96063  0.13098  0.19572  1.0000
  I   I262      1.0  0.54898  0.52944  0.94212  1.0000
  I   I263      1.0  0.71894  0.88798  0.02021  1.0000
  I   I264      1.0  0.16537  0.72535  0.69256  1.0000
  I   I265      1.0  0.13938  0.38258  0.58733  1.0000
  I   I266      1.0  0.04165  0.10306  0.28060  1.0000
  I   I267      1.0  0.16048  0.58868  0.10453  1.0000
  I   I268      1.0  0.54756  0.53081  0.27806  1.0000
  I   I269      1.0  0.06891  0.96907  0.15460  1.0000
  I   I270      1.0  0.85051  0.37921  0.20878  1.0000
  I   I271      1.0  0.79403  0.44364  0.65270  1.0000
  I   I272      1.0  0.68880  0.08915  0.11465  1.0000
  I   I273      1.0  0.33854  0.96440  0.37212  1.0000
  I   I274      1.0  0.66752  0.65663  0.83960  1.0000
  I   I275      1.0  0.81057  0.48835  0.75525  1.0000
  I   I276      1.0  0.00576  0.46095  0.37202  1.0000
  I   I277      1.0  0.10397  0.21826  0.42480  1.0000
  I   I278      1.0  0.38061  0.42470  0.35950  1.0000
  I   I279      1.0  0.59254  0.28587  0.18340  1.0000
  I   I280      1.0  0.74156  0.69911  0.32182  1.0000
  I   I281      1.0  0.52234  0.79585  0.55729  1.0000
  I   I282      1.0  0.64114  0.12975  0.81445  1.0000
  I   I283      1.0  0.43980  0.10968  0.90498  1.0000
  I   I284      1.0  0.70709  0.66205  0.00535  1.0000
  I   I285      1.0  0.40855  0.66545  0.79010  1.0000
  I   I286      1.0  0.14641  0.30038  0.87470  1.0000
  I   I287      1.0  0.08047  0.19727  0.91007  1.0000
  I   I288      1.0  0.46336  0.57127  0.48042  1.0000
  I   I289      1.0  0.55854  0.93244  0.58341  1.0000
  I   I290      1.0  0.36778  0.98667  0.70040  1.0000
  I   I291      1.0  0.55717  0.14132  0.29041  1.0000
  I   I292      1.0  0.75674  0.33969  0.02555  1.0000
  I   I293      1.0  0.19266  0.70857  0.17244  1.0000
  I   I294      1.0  0.25076  0.23868  0.30757  1.0000
  I   I295      1.0  0.07414  0.89277  0.98355  1.0000
  I   I296      1.0  0.42260  0.49814  0.04892  1.0000
  I   I297      1.0  0.27427  0.96029  0.76338  1.0000
  I   I298      1.0  0.47829  0.12895  0.99836  1.0000
  I   I299      1.0  0.76551  0.77120  0.26217  1.0000
  I   I300      1.0  0.23839  0.61402  0.62824  1.0000
  I   I301      1.0  0.42133  0.00195  0.26329  1.0000
  I   I302      1.0  0.22027  0.41191  0.26169  1.0000
  I   I303      1.0  0.05790  0.01379  0.75700  1.0000
  I   I304      1.0  0.90456  0.67546  0.81024  1.0000
  I   I305      1.0  0.60474  0.84751  0.57327  1.0000
  I   I306      1.0  0.36402  0.46781  0.47160  1.0000
  I   I307      1.0  0.88244  0.79714  0.50191  1.0000
  I   I308      1.0  0.22947  0.00089  0.15192  1.0000
  I   I309      1.0  0.89756  0.16814  0.18529  1.0000
  I   I310      1.0  0.61042  0.55245  0.96771  1.0000
  I   I311      1.0  0.74997  0.93059  0.05312  1.0000
  I   I312      1.0  0.97864  0.01045  0.11957  1.0000
  I   I313      1.0  0.13123  0.66039  0.12519  1.0000
  I   I314      1.0  0.06802  0.44841  0.68194  1.0000
  I   I315      1.0  0.07141  0.15950  0.24132  1.0000
  I   I316      1.0  0.88452  0.41760  0.08766  1.0000
  I   I317      1.0  0.52908  0.48230  0.26056  1.0000
  I   I318      1.0  0.00609  0.98180  0.22028  1.0000
  I   I319      1.0  0.22672  0.88780  0.48922  1.0000
  I   I320      1.0  0.85823  0.37992  0.49538  1.0000
  I   I321      1.0  0.68844  0.04769  0.22616  1.0000
  I   I322      1.0  0.56807  0.70566  0.89298  1.0000
  I   I323      1.0  0.85155  0.50954  0.78085  1.0000
  I   I324      1.0  0.04111  0.52278  0.35068  1.0000
  I   I325      1.0  0.12084  0.28708  0.36303  1.0000
  I   I326      1.0  0.42275  0.45360  0.38921  1.0000
  I   I327      1.0  0.58285  0.35083  0.18373  1.0000
  I   I328      1.0  0.67251  0.77668  0.21225  1.0000
  I   I329      1.0  0.57367  0.73552  0.63638  1.0000
  I   I330      1.0  0.63018  0.09971  0.68679  1.0000
  I   I331      1.0  0.41152  0.68662  0.97459  1.0000
  I   I332      1.0  0.49947  0.05660  0.13777  1.0000
  I   I333      1.0  0.75322  0.65561  0.21504  1.0000
  I   I334      1.0  0.36860  0.61530  0.68355  1.0000
  I   I335      1.0  0.17180  0.33354  0.91980  1.0000
  I   I336      1.0  0.01439  0.21011  0.86049  1.0000
  I   I337      1.0  0.54964  0.95706  0.44802  1.0000
  I   I338      1.0  0.34622  0.94755  0.64920  1.0000
  I   I339      1.0  0.57199  0.08195  0.29383  1.0000
  I   I340      1.0  0.72940  0.30140  0.07364  1.0000
  I   I341      1.0  0.23218  0.83500  0.97399  1.0000
  I   I342      1.0  0.19950  0.14102  0.43627  1.0000
  I   I343      1.0  0.01792  0.82117  0.99413  1.0000
  I   I344      1.0  0.34428  0.50039  0.95557  1.0000
  I   I345      1.0  0.33788  0.95638  0.79447  1.0000
  I   I346      1.0  0.53267  0.08706  0.05605  1.0000
  I   I347      1.0  0.84221  0.64710  0.31351  1.0000
  I   I348      1.0  0.23180  0.62948  0.38236  1.0000
  I   I349      1.0  0.54144  0.94444  0.29525  1.0000
  I   I350      1.0  0.27413  0.46389  0.25474  1.0000
  I   I351      1.0  0.12658  0.98602  0.77986  1.0000
  I   I352      1.0  0.94451  0.61445  0.74674  1.0000
  I   I353      1.0  0.05607  0.54370  0.78351  1.0000
  I   I354      1.0  0.38046  0.52037  0.42628  1.0000
  I   I355      1.0  0.84513  0.84293  0.40997  1.0000
  I   I356      1.0  0.15013  0.07513  0.71992  1.0000
  I   I357      1.0  0.85146  0.20222  0.32365  1.0000
  I   I358      1.0  0.18182  0.70903  0.82430  1.0000
  I   I359      1.0  0.78011  0.86956  0.08794  1.0000
  I   I360      1.0  0.94595  0.06764  0.20071  1.0000
  I   I361      1.0  0.17480  0.63352  0.04106  1.0000
  I   I362      1.0  0.13531  0.38073  0.69979  1.0000
  I   I363      1.0  0.09362  0.03929  0.31337  1.0000
  I   I364      1.0  0.81324  0.42896  0.10053  1.0000
  I   I365      1.0  0.50309  0.51451  0.37248  1.0000
  I   I366      1.0  0.12392  0.89861  0.12898  1.0000
  I   I367      1.0  0.28859  0.89396  0.44462  1.0000
  I   I368      1.0  0.79694  0.37384  0.69756  1.0000
  I   I369      1.0  0.63754  0.10356  0.26440  1.0000
  I   I370      1.0  0.61669  0.63359  0.91357  1.0000
  I   I371      1.0  0.87621  0.46447  0.87989  1.0000
  I   I372      1.0  0.99267  0.56039  0.22759  1.0000
  I   I373      1.0  0.05994  0.18807  0.40501  1.0000
  I   I374      1.0  0.35111  0.37846  0.39611  1.0000
  I   I375      1.0  0.64519  0.30627  0.20255  1.0000
  I   I376      1.0  0.67112  0.68339  0.35174  1.0000
  I   I377      1.0  0.53171  0.72810  0.52654  1.0000
  I   I378      1.0  0.70650  0.07146  0.68434  1.0000
  I   I379      1.0  0.46670  0.63537  0.88259  1.0000
  I   I380      1.0  0.87292  0.15533  0.51526  1.0000
  I   I381      1.0  0.76099  0.65405  0.08004  1.0000
  I   I382      1.0  0.48097  0.60661  0.55362  1.0000
  I   I383      1.0  0.10681  0.32953  0.98820  1.0000
  I   I384      1.0  0.04505  0.14588  0.82176  1.0000
