data_image0
_chemical_formula_structural       Ti96I384
_chemical_formula_sum              "Ti96 I384"
_cell_length_a       41.1392
_cell_length_b       40.646
_cell_length_c       22.3704
_cell_angle_alpha    88.7757
_cell_angle_beta     88.7757
_cell_angle_gamma    62.1586

_space_group_name_H-M_alt    "P 1"
_space_group_IT_number       1

loop_
  _space_group_symop_operation_xyz
  'x, y, z'

loop_
  _atom_site_type_symbol
  _atom_site_label
  _atom_site_symmetry_multiplicity
  _atom_site_fract_x
  _atom_site_fract_y
  _atom_site_fract_z
  _atom_site_occupancy
  Ti  Ti1       1.0  0.15853  0.07415  0.09574  1.0000
  Ti  Ti2       1.0  0.14762  0.08830  0.43545  1.0000
  Ti  Ti3       1.0  0.15432  0.08887  0.77467  1.0000
  Ti  Ti4       1.0  0.20961  0.32749  0.24131  1.0000
  Ti  Ti5       1.0  0.20765  0.30672  0.55961  1.0000
  Ti  Ti6       1.0  0.21018  0.32253  0.88834  1.0000
  Ti  Ti7       1.0  0.09627  0.69297  0.35263  1.0000
  Ti  Ti8       1.0  0.11037  0.68169  0.67270  1.0000
  Ti  Ti9       1.0  0.09986  0.68166  0.01489  1.0000
  Ti  Ti10      1.0  0.12833  0.87179  0.23793  1.0000
  Ti  Ti11      1.0  0.14176  0.86463  0.58361  1.0000
  Ti  Ti12      1.0  0.14535  0.85714  0.92490  1.0000
  Ti  Ti13      1.0  0.45391  0.03562  0.26740  1.0000
  Ti  Ti14      1.0  0.45267  0.04636  0.58950  1.0000
  Ti  Ti15      1.0  0.45874  0.04267  0.92369  1.0000
  Ti  Ti16      1.0  0.33777  0.43308  0.39136  1.0000
  Ti  Ti17      1.0  0.35597  0.42656  0.72987  1.0000
  Ti  Ti18      1.0  0.36207  0.42229  0.07129  1.0000
  Ti  Ti19      1.0  0.41533  0.62692  0.37910  1.0000
  Ti  Ti20      1.0  0.42303  0.60262  0.75126  1.0000
  Ti  Ti21      1.0  0.38402  0.63981  0.08245  1.0000
  Ti  Ti22      1.0  0.44468  0.78022  0.05454  1.0000
  Ti  Ti23      1.0  0.39554  0.88026  0.39417  1.0000
  Ti  Ti24      1.0  0.44019  0.81875  0.70826  1.0000
  Ti  Ti25      1.0  0.61066  0.14616  0.30856  1.0000
  Ti  Ti26      1.0  0.60944  0.13642  0.63161  1.0000
  Ti  Ti27      1.0  0.61702  0.12105  0.98997  1.0000
  Ti  Ti28      1.0  0.65869  0.31943  0.21917  1.0000
  Ti  Ti29      1.0  0.64093  0.34719  0.53622  1.0000
  Ti  Ti30      1.0  0.64113  0.36032  0.84530  1.0000
  Ti  Ti31      1.0  0.66443  0.57271  0.04344  1.0000
  Ti  Ti32      1.0  0.67824  0.55634  0.38623  1.0000
  Ti  Ti33      1.0  0.65881  0.57146  0.69692  1.0000
  Ti  Ti34      1.0  0.69479  0.79322  0.30038  1.0000
  Ti  Ti35      1.0  0.70107  0.78787  0.64352  1.0000
  Ti  Ti36      1.0  0.69102  0.79205  0.97391  1.0000
  Ti  Ti37      1.0  0.90086  0.10280  0.28692  1.0000
  Ti  Ti38      1.0  0.90972  0.08631  0.61347  1.0000
  Ti  Ti39      1.0  0.89283  0.09794  0.94100  1.0000
  Ti  Ti40      1.0  0.90753  0.33906  0.13340  1.0000
  Ti  Ti41      1.0  0.91330  0.32979  0.45209  1.0000
  Ti  Ti42      1.0  0.90822  0.33132  0.78172  1.0000
  Ti  Ti43      1.0  0.92603  0.55309  0.33027  1.0000
  Ti  Ti44      1.0  0.92619  0.54754  0.65914  1.0000
  Ti  Ti45      1.0  0.93114  0.53745  0.00283  1.0000
  Ti  Ti46      1.0  0.85965  0.89031  0.35679  1.0000
  Ti  Ti47      1.0  0.83098  0.87942  0.67978  1.0000
  Ti  Ti48      1.0  0.84205  0.88275  0.01466  1.0000
  Ti  Ti49      1.0  0.09493  0.14675  0.95456  1.0000
  Ti  Ti50      1.0  0.08553  0.15060  0.24631  1.0000
  Ti  Ti51      1.0  0.08568  0.14476  0.61602  1.0000
  Ti  Ti52      1.0  0.14946  0.33178  0.09098  1.0000
  Ti  Ti53      1.0  0.14151  0.33740  0.39642  1.0000
  Ti  Ti54      1.0  0.14770  0.31231  0.74160  1.0000
  Ti  Ti55      1.0  0.03458  0.73434  0.18294  1.0000
  Ti  Ti56      1.0  0.02693  0.73032  0.51614  1.0000
  Ti  Ti57      1.0  0.03926  0.73355  0.84329  1.0000
  Ti  Ti58      1.0  0.06652  0.93365  0.07957  1.0000
  Ti  Ti59      1.0  0.08509  0.93469  0.42210  1.0000
  Ti  Ti60      1.0  0.09104  0.91239  0.74942  1.0000
  Ti  Ti61      1.0  0.40272  0.10159  0.08550  1.0000
  Ti  Ti62      1.0  0.39098  0.11606  0.43058  1.0000
  Ti  Ti63      1.0  0.39498  0.10652  0.75098  1.0000
  Ti  Ti64      1.0  0.30238  0.49545  0.23303  1.0000
  Ti  Ti65      1.0  0.28395  0.47977  0.56655  1.0000
  Ti  Ti66      1.0  0.30930  0.48981  0.89494  1.0000
  Ti  Ti67      1.0  0.32521  0.66619  0.23057  1.0000
  Ti  Ti68      1.0  0.36922  0.64367  0.58282  1.0000
  Ti  Ti69      1.0  0.35033  0.68225  0.90160  1.0000
  Ti  Ti70      1.0  0.42747  0.83889  0.90379  1.0000
  Ti  Ti71      1.0  0.32319  0.96291  0.27061  1.0000
  Ti  Ti72      1.0  0.36373  0.88952  0.58077  1.0000
  Ti  Ti73      1.0  0.55175  0.18903  0.13615  1.0000
  Ti  Ti74      1.0  0.54053  0.20343  0.46826  1.0000
  Ti  Ti75      1.0  0.56756  0.16918  0.81919  1.0000
  Ti  Ti76      1.0  0.58598  0.41270  0.01869  1.0000
  Ti  Ti77      1.0  0.59215  0.38920  0.36675  1.0000
  Ti  Ti78      1.0  0.57896  0.40212  0.68897  1.0000
  Ti  Ti79      1.0  0.60992  0.62560  0.87490  1.0000
  Ti  Ti80      1.0  0.63996  0.63440  0.21817  1.0000
  Ti  Ti81      1.0  0.61704  0.63011  0.53453  1.0000
  Ti  Ti82      1.0  0.63785  0.85418  0.13402  1.0000
  Ti  Ti83      1.0  0.65173  0.84608  0.47911  1.0000
  Ti  Ti84      1.0  0.64476  0.85503  0.79684  1.0000
  Ti  Ti85      1.0  0.83371  0.14573  0.12001  1.0000
  Ti  Ti86      1.0  0.82511  0.13067  0.45549  1.0000
  Ti  Ti87      1.0  0.82760  0.13427  0.77334  1.0000
  Ti  Ti88      1.0  0.85667  0.37695  0.95723  1.0000
  Ti  Ti89      1.0  0.84750  0.39056  0.29150  1.0000
  Ti  Ti90      1.0  0.83621  0.37927  0.62758  1.0000
  Ti  Ti91      1.0  0.91474  0.61087  0.15939  1.0000
  Ti  Ti92      1.0  0.91028  0.61477  0.50109  1.0000
  Ti  Ti93      1.0  0.89251  0.62197  0.83612  1.0000
  Ti  Ti94      1.0  0.80853  0.95275  0.18716  1.0000
  Ti  Ti95      1.0  0.78510  0.95169  0.51151  1.0000
  Ti  Ti96      1.0  0.77525  0.94123  0.84399  1.0000
  I   I1        1.0  0.07797  0.11306  0.14857  1.0000
  I   I2        1.0  0.07499  0.11254  0.49595  1.0000
  I   I3        1.0  0.08613  0.11645  0.84088  1.0000
  I   I4        1.0  0.17313  0.29134  0.29994  1.0000
  I   I5        1.0  0.17356  0.26810  0.64803  1.0000
  I   I6        1.0  0.17403  0.29312  0.98647  1.0000
  I   I7        1.0  0.03486  0.68617  0.41346  1.0000
  I   I8        1.0  0.03147  0.70246  0.73751  1.0000
  I   I9        1.0  0.03065  0.71009  0.06713  1.0000
  I   I10       1.0  0.06505  0.91536  0.31307  1.0000
  I   I11       1.0  0.06465  0.90251  0.63522  1.0000
  I   I12       1.0  0.07099  0.88156  0.97985  1.0000
  I   I13       1.0  0.38704  0.07415  0.33631  1.0000
  I   I14       1.0  0.38058  0.07219  0.65273  1.0000
  I   I15       1.0  0.38826  0.07018  0.98357  1.0000
  I   I16       1.0  0.26340  0.46684  0.44569  1.0000
  I   I17       1.0  0.29283  0.45965  0.80027  1.0000
  I   I18       1.0  0.29067  0.46352  0.12855  1.0000
  I   I19       1.0  0.37480  0.60012  0.47549  1.0000
  I   I20       1.0  0.35176  0.63572  0.80033  1.0000
  I   I21       1.0  0.32347  0.62686  0.13961  1.0000
  I   I22       1.0  0.25973  0.96127  0.28436  1.0000
  I   I23       1.0  0.33446  0.88804  0.46641  1.0000
  I   I24       1.0  0.39204  0.82359  0.80403  1.0000
  I   I25       1.0  0.53829  0.16573  0.36155  1.0000
  I   I26       1.0  0.55326  0.13910  0.71090  1.0000
  I   I27       1.0  0.54608  0.15407  0.03875  1.0000
  I   I28       1.0  0.58495  0.34832  0.27552  1.0000
  I   I29       1.0  0.56647  0.37395  0.58683  1.0000
  I   I30       1.0  0.57714  0.36855  0.92944  1.0000
  I   I31       1.0  0.60110  0.61786  0.12274  1.0000
  I   I32       1.0  0.60345  0.59317  0.43977  1.0000
  I   I33       1.0  0.59069  0.59594  0.76370  1.0000
  I   I34       1.0  0.63220  0.81723  0.38584  1.0000
  I   I35       1.0  0.62760  0.81145  0.70214  1.0000
  I   I36       1.0  0.61647  0.83622  0.03035  1.0000
  I   I37       1.0  0.84462  0.08928  0.35660  1.0000
  I   I38       1.0  0.84610  0.08283  0.68766  1.0000
  I   I39       1.0  0.82412  0.10125  0.03000  1.0000
  I   I40       1.0  0.83812  0.36389  0.18341  1.0000
  I   I41       1.0  0.84006  0.34713  0.51352  1.0000
  I   I42       1.0  0.84127  0.35491  0.84199  1.0000
  I   I43       1.0  0.87436  0.62291  0.38386  1.0000
  I   I44       1.0  0.85724  0.61521  0.72467  1.0000
  I   I45       1.0  0.87748  0.60180  0.05947  1.0000
  I   I46       1.0  0.79049  0.90717  0.41667  1.0000
  I   I47       1.0  0.75956  0.92715  0.73425  1.0000
  I   I48       1.0  0.78696  0.92441  0.09679  1.0000
  I   I49       1.0  0.13775  0.14483  0.03944  1.0000
  I   I50       1.0  0.11953  0.15391  0.35108  1.0000
  I   I51       1.0  0.11643  0.15976  0.71475  1.0000
  I   I52       1.0  0.13389  0.37866  0.19129  1.0000
  I   I53       1.0  0.14361  0.36758  0.51137  1.0000
  I   I54       1.0  0.14587  0.35995  0.84142  1.0000
  I   I55       1.0  0.05747  0.76312  0.28389  1.0000
  I   I56       1.0  0.05578  0.76197  0.59706  1.0000
  I   I57       1.0  0.06896  0.75269  0.94704  1.0000
  I   I58       1.0  0.09600  0.94430  0.17788  1.0000
  I   I59       1.0  0.12983  0.92659  0.51645  1.0000
  I   I60       1.0  0.10768  0.92856  0.85501  1.0000
  I   I61       1.0  0.42704  0.11127  0.19456  1.0000
  I   I62       1.0  0.42188  0.13195  0.53510  1.0000
  I   I63       1.0  0.42849  0.11063  0.84951  1.0000
  I   I64       1.0  0.32679  0.50470  0.33055  1.0000
  I   I65       1.0  0.31347  0.49907  0.65353  1.0000
  I   I66       1.0  0.33443  0.50305  0.00416  1.0000
  I   I67       1.0  0.34747  0.69056  0.33658  1.0000
  I   I68       1.0  0.39032  0.67424  0.66957  1.0000
  I   I69       1.0  0.35255  0.71036  0.00567  1.0000
  I   I70       1.0  0.47235  0.83227  0.99348  1.0000
  I   I71       1.0  0.36257  0.96661  0.36931  1.0000
  I   I72       1.0  0.39038  0.89561  0.68940  1.0000
  I   I73       1.0  0.56878  0.21411  0.24575  1.0000
  I   I74       1.0  0.56742  0.21406  0.58461  1.0000
  I   I75       1.0  0.59819  0.18803  0.90865  1.0000
  I   I76       1.0  0.62847  0.41747  0.10067  1.0000
  I   I77       1.0  0.61465  0.41824  0.45720  1.0000
  I   I78       1.0  0.59992  0.43094  0.80215  1.0000
  I   I79       1.0  0.64708  0.63479  0.98698  1.0000
  I   I80       1.0  0.67317  0.63233  0.31569  1.0000
  I   I81       1.0  0.64662  0.64049  0.63799  1.0000
  I   I82       1.0  0.66559  0.86478  0.24801  1.0000
  I   I83       1.0  0.67423  0.85977  0.59119  1.0000
  I   I84       1.0  0.67040  0.86607  0.90298  1.0000
  I   I85       1.0  0.84136  0.17250  0.23080  1.0000
  I   I86       1.0  0.85151  0.15109  0.56112  1.0000
  I   I87       1.0  0.83859  0.17009  0.89139  1.0000
  I   I88       1.0  0.89124  0.40054  0.05641  1.0000
  I   I89       1.0  0.88429  0.40206  0.39945  1.0000
  I   I90       1.0  0.86250  0.40276  0.71573  1.0000
  I   I91       1.0  0.95218  0.60464  0.25910  1.0000
  I   I92       1.0  0.94793  0.59678  0.60190  1.0000
  I   I93       1.0  0.94051  0.61016  0.92095  1.0000
  I   I94       1.0  0.83708  0.96482  0.29416  1.0000
  I   I95       1.0  0.81061  0.96404  0.60940  1.0000
  I   I96       1.0  0.81577  0.95131  0.95191  1.0000
  I   I97       1.0  0.16463  0.11683  0.87787  1.0000
  I   I98       1.0  0.15799  0.11121  0.20307  1.0000
  I   I99       1.0  0.15064  0.12423  0.54341  1.0000
  I   I100      1.0  0.19274  0.36530  0.98741  1.0000
  I   I101      1.0  0.19145  0.36233  0.35533  1.0000
  I   I102      1.0  0.19028  0.34450  0.66515  1.0000
  I   I103      1.0  0.11168  0.70194  0.12921  1.0000
  I   I104      1.0  0.08857  0.73056  0.45643  1.0000
  I   I105      1.0  0.11186  0.71746  0.78221  1.0000
  I   I106      1.0  0.13314  0.91018  0.02020  1.0000
  I   I107      1.0  0.15083  0.89964  0.33634  1.0000
  I   I108      1.0  0.16318  0.89275  0.67078  1.0000
  I   I109      1.0  0.48148  0.05984  0.02213  1.0000
  I   I110      1.0  0.46383  0.08424  0.35661  1.0000
  I   I111      1.0  0.46616  0.07575  0.68997  1.0000
  I   I112      1.0  0.37896  0.45315  0.18556  1.0000
  I   I113      1.0  0.34757  0.46839  0.49292  1.0000
  I   I114      1.0  0.38047  0.44980  0.83764  1.0000
  I   I115      1.0  0.38400  0.68043  0.17720  1.0000
  I   I116      1.0  0.41739  0.65740  0.49966  1.0000
  I   I117      1.0  0.42165  0.64784  0.84836  1.0000
  I   I118      1.0  0.47919  0.82787  0.81636  1.0000
  I   I119      1.0  0.44981  0.82148  0.14638  1.0000
  I   I120      1.0  0.42437  0.88370  0.50352  1.0000
  I   I121      1.0  0.62360  0.15879  0.08415  1.0000
  I   I122      1.0  0.61295  0.18576  0.41544  1.0000
  I   I123      1.0  0.63446  0.15022  0.75054  1.0000
  I   I124      1.0  0.64846  0.39207  0.94074  1.0000
  I   I125      1.0  0.66240  0.36651  0.31300  1.0000
  I   I126      1.0  0.65055  0.39059  0.63015  1.0000
  I   I127      1.0  0.67517  0.59926  0.80486  1.0000
  I   I128      1.0  0.70124  0.58055  0.15049  1.0000
  I   I129      1.0  0.68799  0.58787  0.48822  1.0000
  I   I130      1.0  0.70871  0.80976  0.08671  1.0000
  I   I131      1.0  0.72671  0.80427  0.40751  1.0000
  I   I132      1.0  0.71267  0.82069  0.73382  1.0000
  I   I133      1.0  0.89891  0.13559  0.03310  1.0000
  I   I134      1.0  0.89312  0.14491  0.38802  1.0000
  I   I135      1.0  0.90849  0.11717  0.72112  1.0000
  I   I136      1.0  0.92133  0.36382  0.88442  1.0000
  I   I137      1.0  0.91940  0.37424  0.23182  1.0000
  I   I138      1.0  0.91296  0.36306  0.55328  1.0000
  I   I139      1.0  0.96900  0.54042  0.11045  1.0000
  I   I140      1.0  0.96013  0.55605  0.43304  1.0000
  I   I141      1.0  0.95113  0.55694  0.76904  1.0000
  I   I142      1.0  0.87654  0.90514  0.11568  1.0000
  I   I143      1.0  0.86446  0.92672  0.45312  1.0000
  I   I144      1.0  0.84095  0.91833  0.76815  1.0000
  I   I145      1.0  0.11866  0.06790  0.00226  1.0000
  I   I146      1.0  0.11575  0.07772  0.32925  1.0000
  I   I147      1.0  0.13277  0.06673  0.66614  1.0000
  I   I148      1.0  0.22007  0.28229  0.12562  1.0000
  I   I149      1.0  0.20284  0.26874  0.45983  1.0000
  I   I150      1.0  0.21567  0.26856  0.79851  1.0000
  I   I151      1.0  0.07167  0.66477  0.24836  1.0000
  I   I152      1.0  0.08050  0.66287  0.58053  1.0000
  I   I153      1.0  0.08889  0.66205  0.89574  1.0000
  I   I154      1.0  0.08509  0.85970  0.15643  1.0000
  I   I155      1.0  0.09840  0.86274  0.47776  1.0000
  I   I156      1.0  0.13237  0.83660  0.81336  1.0000
  I   I157      1.0  0.42806  0.02307  0.16439  1.0000
  I   I158      1.0  0.42959  0.04085  0.48061  1.0000
  I   I159      1.0  0.42075  0.03215  0.80315  1.0000
  I   I160      1.0  0.30257  0.43029  0.28818  1.0000
  I   I161      1.0  0.32885  0.40305  0.63874  1.0000
  I   I162      1.0  0.33925  0.41469  0.96684  1.0000
  I   I163      1.0  0.38507  0.59886  0.30131  1.0000
  I   I164      1.0  0.41584  0.57766  0.65165  1.0000
  I   I165      1.0  0.36200  0.61374  0.98478  1.0000
  I   I166      1.0  0.44817  0.76043  0.93904  1.0000
  I   I167      1.0  0.36669  0.88176  0.28224  1.0000
  I   I168      1.0  0.40399  0.81625  0.59646  1.0000
  I   I169      1.0  0.58653  0.12131  0.20608  1.0000
  I   I170      1.0  0.57496  0.13227  0.52094  1.0000
  I   I171      1.0  0.59817  0.09881  0.87300  1.0000
  I   I172      1.0  0.66347  0.27262  0.13539  1.0000
  I   I173      1.0  0.62883  0.31583  0.44221  1.0000
  I   I174      1.0  0.61138  0.33520  0.74857  1.0000
  I   I175      1.0  0.64847  0.55221  0.93243  1.0000
  I   I176      1.0  0.64890  0.55302  0.27616  1.0000
  I   I177      1.0  0.63289  0.56064  0.59547  1.0000
  I   I178      1.0  0.65768  0.78265  0.20856  1.0000
  I   I179      1.0  0.67070  0.77304  0.54222  1.0000
  I   I180      1.0  0.66048  0.78434  0.87422  1.0000
  I   I181      1.0  0.88777  0.08064  0.17592  1.0000
  I   I182      1.0  0.88561  0.06756  0.49427  1.0000
  I   I183      1.0  0.86326  0.07036  0.85554  1.0000
  I   I184      1.0  0.90013  0.31067  0.01205  1.0000
  I   I185      1.0  0.88954  0.31714  0.34565  1.0000
  I   I186      1.0  0.87991  0.31060  0.68652  1.0000
  I   I187      1.0  0.88396  0.57357  0.22738  1.0000
  I   I188      1.0  0.88881  0.56009  0.54468  1.0000
  I   I189      1.0  0.88407  0.56352  0.90915  1.0000
  I   I190      1.0  0.81632  0.88859  0.25920  1.0000
  I   I191      1.0  0.81445  0.87089  0.57005  1.0000
  I   I192      1.0  0.80931  0.87520  0.89610  1.0000
  I   I193      1.0  0.22397  0.05742  0.06181  1.0000
  I   I194      1.0  0.21381  0.07363  0.41395  1.0000
  I   I195      1.0  0.22073  0.07544  0.73047  1.0000
  I   I196      1.0  0.22982  0.37201  0.19157  1.0000
  I   I197      1.0  0.25254  0.33023  0.51460  1.0000
  I   I198      1.0  0.23661  0.35747  0.82162  1.0000
  I   I199      1.0  0.15556  0.69666  0.31696  1.0000
  I   I200      1.0  0.17068  0.67498  0.63133  1.0000
  I   I201      1.0  0.16472  0.66235  0.95885  1.0000
  I   I202      1.0  0.18719  0.83810  0.17101  1.0000
  I   I203      1.0  0.20663  0.83324  0.53506  1.0000
  I   I204      1.0  0.21092  0.84457  0.88352  1.0000
  I   I205      1.0  0.52643  0.01078  0.23345  1.0000
  I   I206      1.0  0.52027  0.03084  0.55138  1.0000
  I   I207      1.0  0.52586  0.01971  0.87057  1.0000
  I   I208      1.0  0.40308  0.40743  0.36232  1.0000
  I   I209      1.0  0.41319  0.41649  0.66249  1.0000
  I   I210      1.0  0.43113  0.39916  0.03458  1.0000
  I   I211      1.0  0.44316  0.66281  0.32025  1.0000
  I   I212      1.0  0.49019  0.59602  0.72824  1.0000
  I   I213      1.0  0.44012  0.64179  0.02536  1.0000
  I   I214      1.0  0.51156  0.72867  0.07200  1.0000
  I   I215      1.0  0.45514  0.87529  0.33645  1.0000
  I   I216      1.0  0.49399  0.82658  0.65527  1.0000
  I   I217      1.0  0.67243  0.13953  0.26909  1.0000
  I   I218      1.0  0.67283  0.13416  0.60486  1.0000
  I   I219      1.0  0.68714  0.10273  0.96020  1.0000
  I   I220      1.0  0.71305  0.32920  0.17207  1.0000
  I   I221      1.0  0.70727  0.33437  0.49906  1.0000
  I   I222      1.0  0.69846  0.34290  0.77808  1.0000
  I   I223      1.0  0.73461  0.53260  0.00958  1.0000
  I   I224      1.0  0.74372  0.52547  0.33783  1.0000
  I   I225      1.0  0.73026  0.54385  0.68108  1.0000
  I   I226      1.0  0.75309  0.77765  0.24695  1.0000
  I   I227      1.0  0.76041  0.78422  0.58749  1.0000
  I   I228      1.0  0.75452  0.76737  0.91613  1.0000
  I   I229      1.0  0.94471  0.12284  0.22917  1.0000
  I   I230      1.0  0.96815  0.09038  0.56824  1.0000
  I   I231      1.0  0.94890  0.09169  0.88425  1.0000
  I   I232      1.0  0.97566  0.32763  0.09914  1.0000
  I   I233      1.0  0.98137  0.31129  0.41857  1.0000
  I   I234      1.0  0.96636  0.32657  0.72273  1.0000
  I   I235      1.0  0.98608  0.50159  0.29503  1.0000
  I   I236      1.0  0.98218  0.49181  0.60453  1.0000
  I   I237      1.0  0.99327  0.49372  0.95278  1.0000
  I   I238      1.0  0.91858  0.86560  0.28723  1.0000
  I   I239      1.0  0.90229  0.84411  0.66200  1.0000
  I   I240      1.0  0.89983  0.85136  0.95209  1.0000
  I   I241      1.0  0.17279  0.01392  0.16027  1.0000
  I   I242      1.0  0.16486  0.02557  0.48908  1.0000
  I   I243      1.0  0.18204  0.01661  0.80219  1.0000
  I   I244      1.0  0.27199  0.28267  0.29468  1.0000
  I   I245      1.0  0.26592  0.25125  0.59943  1.0000
  I   I246      1.0  0.27493  0.27421  0.94413  1.0000
  I   I247      1.0  0.12846  0.62170  0.38210  1.0000
  I   I248      1.0  0.12818  0.61713  0.71795  1.0000
  I   I249      1.0  0.11170  0.61216  0.03660  1.0000
  I   I250      1.0  0.13324  0.81368  0.29221  1.0000
  I   I251      1.0  0.14281  0.80291  0.62342  1.0000
  I   I252      1.0  0.16763  0.79002  0.96684  1.0000
  I   I253      1.0  0.46934  0.97307  0.32578  1.0000
  I   I254      1.0  0.46767  0.98315  0.63521  1.0000
  I   I255      1.0  0.47850  0.97291  0.93957  1.0000
  I   I256      1.0  0.34432  0.37139  0.44547  1.0000
  I   I257      1.0  0.39216  0.35892  0.76605  1.0000
  I   I258      1.0  0.36712  0.36538  0.12951  1.0000
  I   I259      1.0  0.47277  0.56508  0.40906  1.0000
  I   I260      1.0  0.45199  0.54253  0.81679  1.0000
  I   I261      1.0  0.41618  0.56711  0.11635  1.0000
  I   I262      1.0  0.40259  0.75873  0.11926  1.0000
  I   I263      1.0  0.42021  0.80899  0.39000  1.0000
  I   I264      1.0  0.47345  0.74610  0.69877  1.0000
  I   I265      1.0  0.63496  0.07963  0.35826  1.0000
  I   I266      1.0  0.63077  0.06339  0.63645  1.0000
  I   I267      1.0  0.62696  0.06313  0.04677  1.0000
  I   I268      1.0  0.70117  0.26414  0.29513  1.0000
  I   I269      1.0  0.65733  0.28995  0.60089  1.0000
  I   I270      1.0  0.67019  0.29057  0.88819  1.0000
  I   I271      1.0  0.64203  0.52337  0.08465  1.0000
  I   I272      1.0  0.67826  0.49643  0.42828  1.0000
  I   I273      1.0  0.66751  0.50667  0.73580  1.0000
  I   I274      1.0  0.71153  0.72431  0.33008  1.0000
  I   I275      1.0  0.72970  0.72047  0.68964  1.0000
  I   I276      1.0  0.70180  0.72712  0.01112  1.0000
  I   I277      1.0  0.94700  0.03063  0.30415  1.0000
  I   I278      1.0  0.94281  0.01568  0.62914  1.0000
  I   I279      1.0  0.92604  0.02738  0.99634  1.0000
  I   I280      1.0  0.93824  0.27546  0.18916  1.0000
  I   I281      1.0  0.93666  0.25966  0.49030  1.0000
  I   I282      1.0  0.93692  0.26138  0.81732  1.0000
  I   I283      1.0  0.89140  0.51700  0.37367  1.0000
  I   I284      1.0  0.90148  0.50510  0.70916  1.0000
  I   I285      1.0  0.91508  0.48368  0.03058  1.0000
  I   I286      1.0  0.87788  0.82161  0.39603  1.0000
  I   I287      1.0  0.82747  0.82392  0.73090  1.0000
  I   I288      1.0  0.84979  0.82281  0.06928  1.0000
  I   I289      1.0  0.02707  0.15963  0.98073  1.0000
  I   I290      1.0  0.02196  0.17000  0.30103  1.0000
  I   I291      1.0  0.03039  0.15064  0.67717  1.0000
  I   I292      1.0  0.12240  0.29147  0.13326  1.0000
  I   I293      1.0  0.10661  0.30190  0.44825  1.0000
  I   I294      1.0  0.11099  0.28410  0.80490  1.0000
  I   I295      1.0  0.97403  0.74529  0.23277  1.0000
  I   I296      1.0  0.98295  0.70618  0.57455  1.0000
  I   I297      1.0  0.98522  0.73286  0.90267  1.0000
  I   I298      1.0  0.00282  0.93866  0.11458  1.0000
  I   I299      1.0  0.02068  0.96816  0.47358  1.0000
  I   I300      1.0  0.03448  0.90634  0.78897  1.0000
  I   I301      1.0  0.33507  0.12255  0.11463  1.0000
  I   I302      1.0  0.32367  0.13187  0.46560  1.0000
  I   I303      1.0  0.33316  0.11783  0.79742  1.0000
  I   I304      1.0  0.22731  0.52874  0.24385  1.0000
  I   I305      1.0  0.23337  0.46233  0.62291  1.0000
  I   I306      1.0  0.24710  0.50431  0.95211  1.0000
  I   I307      1.0  0.28118  0.65437  0.31115  1.0000
  I   I308      1.0  0.32235  0.61814  0.61750  1.0000
  I   I309      1.0  0.27986  0.70530  0.90864  1.0000
  I   I310      1.0  0.37914  0.84021  0.99907  1.0000
  I   I311      1.0  0.30073  0.03638  0.25939  1.0000
  I   I312      1.0  0.30058  0.91297  0.64255  1.0000
  I   I313      1.0  0.48236  0.20800  0.16153  1.0000
  I   I314      1.0  0.48187  0.20147  0.51318  1.0000
  I   I315      1.0  0.50453  0.17212  0.86343  1.0000
  I   I316      1.0  0.54185  0.39755  0.08248  1.0000
  I   I317      1.0  0.52554  0.40845  0.40244  1.0000
  I   I318      1.0  0.51744  0.41577  0.73860  1.0000
  I   I319      1.0  0.53970  0.64455  0.90602  1.0000
  I   I320      1.0  0.57335  0.67898  0.26248  1.0000
  I   I321      1.0  0.55056  0.65800  0.57380  1.0000
  I   I322      1.0  0.56959  0.88644  0.18413  1.0000
  I   I323      1.0  0.58483  0.88401  0.52420  1.0000
  I   I324      1.0  0.57588  0.87158  0.83206  1.0000
  I   I325      1.0  0.77665  0.14329  0.16351  1.0000
  I   I326      1.0  0.77337  0.11761  0.49358  1.0000
  I   I327      1.0  0.76455  0.13940  0.81311  1.0000
  I   I328      1.0  0.79425  0.39821  0.00113  1.0000
  I   I329      1.0  0.78971  0.39018  0.33362  1.0000
  I   I330      1.0  0.78206  0.37789  0.68688  1.0000
  I   I331      1.0  0.85723  0.67090  0.20271  1.0000
  I   I332      1.0  0.84248  0.66089  0.54697  1.0000
  I   I333      1.0  0.83937  0.66591  0.90298  1.0000
  I   I334      1.0  0.74532  0.98919  0.23568  1.0000
  I   I335      1.0  0.72350  0.96456  0.55241  1.0000
  I   I336      1.0  0.71067  0.95673  0.88846  1.0000
  I   I337      1.0  0.07128  0.21351  0.91637  1.0000
  I   I338      1.0  0.06377  0.22141  0.20908  1.0000
  I   I339      1.0  0.05409  0.21176  0.57230  1.0000
  I   I340      1.0  0.09980  0.38787  0.03132  1.0000
  I   I341      1.0  0.08603  0.39015  0.33947  1.0000
  I   I342      1.0  0.08384  0.35723  0.68801  1.0000
  I   I343      1.0  0.02177  0.79636  0.13165  1.0000
  I   I344      1.0  0.97510  0.78912  0.47800  1.0000
  I   I345      1.0  0.01134  0.80296  0.81703  1.0000
  I   I346      1.0  0.03251  0.00182  0.04483  1.0000
  I   I347      1.0  0.07447  0.99948  0.38097  1.0000
  I   I348      1.0  0.07068  0.98173  0.71991  1.0000
  I   I349      1.0  0.40017  0.16311  0.03970  1.0000
  I   I350      1.0  0.37319  0.17744  0.37292  1.0000
  I   I351      1.0  0.38555  0.17414  0.70417  1.0000
  I   I352      1.0  0.29045  0.55954  0.17862  1.0000
  I   I353      1.0  0.23663  0.54964  0.55255  1.0000
  I   I354      1.0  0.29120  0.55580  0.85440  1.0000
  I   I355      1.0  0.28062  0.73536  0.19806  1.0000
  I   I356      1.0  0.31470  0.70691  0.55248  1.0000
  I   I357      1.0  0.34351  0.74014  0.83485  1.0000
  I   I358      1.0  0.38994  0.91336  0.89559  1.0000
  I   I359      1.0  0.34325  0.94693  0.15726  1.0000
  I   I360      1.0  0.33966  0.96396  0.55299  1.0000
  I   I361      1.0  0.54479  0.25028  0.09452  1.0000
  I   I362      1.0  0.51187  0.27422  0.43455  1.0000
  I   I363      1.0  0.54024  0.23892  0.78335  1.0000
  I   I364      1.0  0.54783  0.48320  0.98846  1.0000
  I   I365      1.0  0.56833  0.45232  0.31025  1.0000
  I   I366      1.0  0.56423  0.46761  0.65137  1.0000
  I   I367      1.0  0.58418  0.69607  0.84750  1.0000
  I   I368      1.0  0.64701  0.68746  0.16355  1.0000
  I   I369      1.0  0.62185  0.69025  0.48921  1.0000
  I   I370      1.0  0.63673  0.91125  0.08358  1.0000
  I   I371      1.0  0.65595  0.90234  0.42922  1.0000
  I   I372      1.0  0.62256  0.92270  0.75757  1.0000
  I   I373      1.0  0.80798  0.21459  0.08085  1.0000
  I   I374      1.0  0.78445  0.19745  0.42388  1.0000
  I   I375      1.0  0.80344  0.19848  0.72294  1.0000
  I   I376      1.0  0.83601  0.44327  0.90121  1.0000
  I   I377      1.0  0.82377  0.45529  0.24661  1.0000
  I   I378      1.0  0.80269  0.44374  0.57704  1.0000
  I   I379      1.0  0.95500  0.64172  0.10895  1.0000
  I   I380      1.0  0.91284  0.67195  0.45599  1.0000
  I   I381      1.0  0.90932  0.66752  0.77224  1.0000
  I   I382      1.0  0.81420  0.00658  0.12858  1.0000
  I   I383      1.0  0.75952  0.01638  0.44797  1.0000
  I   I384      1.0  0.76074  0.01140  0.82772  1.0000
