data_image0
_chemical_formula_structural       Ti96I384
_chemical_formula_sum              "Ti96 I384"
_cell_length_a       47.8596
_cell_length_b       47.3905
_cell_length_c       23.1777
_cell_angle_alpha    88.7757
_cell_angle_beta     88.7757
_cell_angle_gamma    62.1586

_space_group_name_H-M_alt    "P 1"
_space_group_IT_number       1

loop_
  _space_group_symop_operation_xyz
  'x, y, z'

loop_
  _atom_site_type_symbol
  _atom_site_label
  _atom_site_symmetry_multiplicity
  _atom_site_fract_x
  _atom_site_fract_y
  _atom_site_fract_z
  _atom_site_occupancy
  Ti  Ti1       1.0  0.43379  0.96228  0.43172  1.0000
  Ti  Ti2       1.0  0.18666  0.01140  0.96426  1.0000
  Ti  Ti3       1.0  0.32122  0.00440  0.15838  1.0000
  Ti  Ti4       1.0  0.20682  0.18907  0.36864  1.0000
  Ti  Ti5       1.0  0.18102  0.29331  0.80456  1.0000
  Ti  Ti6       1.0  0.17951  0.19740  0.02996  1.0000
  Ti  Ti7       1.0  0.98003  0.64805  0.45550  1.0000
  Ti  Ti8       1.0  0.93778  0.78767  0.67794  1.0000
  Ti  Ti9       1.0  0.93925  0.76764  0.21351  1.0000
  Ti  Ti10      1.0  0.07701  0.83077  0.19832  1.0000
  Ti  Ti11      1.0  0.06490  0.90752  0.71194  1.0000
  Ti  Ti12      1.0  0.11246  0.73508  0.81110  1.0000
  Ti  Ti13      1.0  0.35589  0.27010  0.19256  1.0000
  Ti  Ti14      1.0  0.39805  0.13973  0.64617  1.0000
  Ti  Ti15      1.0  0.35248  0.18553  0.97291  1.0000
  Ti  Ti16      1.0  0.29636  0.59450  0.01793  1.0000
  Ti  Ti17      1.0  0.21806  0.53679  0.22851  1.0000
  Ti  Ti18      1.0  0.33156  0.47533  0.67076  1.0000
  Ti  Ti19      1.0  0.34063  0.77405  0.18614  1.0000
  Ti  Ti20      1.0  0.45381  0.66136  0.80565  1.0000
  Ti  Ti21      1.0  0.24599  0.72792  0.40103  1.0000
  Ti  Ti22      1.0  0.33941  0.84087  0.74887  1.0000
  Ti  Ti23      1.0  0.51445  0.83170  0.00942  1.0000
  Ti  Ti24      1.0  0.44986  0.74699  0.50036  1.0000
  Ti  Ti25      1.0  0.58252  0.23633  0.54194  1.0000
  Ti  Ti26      1.0  0.58323  0.22896  0.86378  1.0000
  Ti  Ti27      1.0  0.61547  0.22474  0.21589  1.0000
  Ti  Ti28      1.0  0.66796  0.36329  0.26524  1.0000
  Ti  Ti29      1.0  0.66335  0.42728  0.63630  1.0000
  Ti  Ti30      1.0  0.66990  0.37476  0.92280  1.0000
  Ti  Ti31      1.0  0.67962  0.55971  0.28602  1.0000
  Ti  Ti32      1.0  0.77482  0.54197  0.64519  1.0000
  Ti  Ti33      1.0  0.71075  0.52202  0.95165  1.0000
  Ti  Ti34      1.0  0.83381  0.63443  0.96146  1.0000
  Ti  Ti35      1.0  0.72089  0.83993  0.30847  1.0000
  Ti  Ti36      1.0  0.71619  0.74806  0.71572  1.0000
  Ti  Ti37      1.0  0.86238  0.11898  0.99433  1.0000
  Ti  Ti38      1.0  0.86299  0.14788  0.31836  1.0000
  Ti  Ti39      1.0  0.84548  0.13697  0.63285  1.0000
  Ti  Ti40      1.0  0.98710  0.28827  0.11951  1.0000
  Ti  Ti41      1.0  0.96979  0.31368  0.51608  1.0000
  Ti  Ti42      1.0  0.01112  0.09483  0.59506  1.0000
  Ti  Ti43      1.0  0.93323  0.50929  0.27094  1.0000
  Ti  Ti44      1.0  0.97582  0.47509  0.61159  1.0000
  Ti  Ti45      1.0  0.03850  0.49774  0.88402  1.0000
  Ti  Ti46      1.0  0.78399  0.00242  0.38355  1.0000
  Ti  Ti47      1.0  0.74056  0.02828  0.72566  1.0000
  Ti  Ti48      1.0  0.65687  0.03625  0.01307  1.0000
  Ti  Ti49      1.0  0.35861  0.01330  0.33747  1.0000
  Ti  Ti50      1.0  0.10793  0.03383  0.88738  1.0000
  Ti  Ti51      1.0  0.24023  0.99308  0.16865  1.0000
  Ti  Ti52      1.0  0.14421  0.22375  0.27802  1.0000
  Ti  Ti53      1.0  0.14344  0.31131  0.64346  1.0000
  Ti  Ti54      1.0  0.14724  0.21308  0.85106  1.0000
  Ti  Ti55      1.0  0.96771  0.68078  0.31381  1.0000
  Ti  Ti56      1.0  0.93534  0.87098  0.62238  1.0000
  Ti  Ti57      1.0  0.92026  0.80189  0.05142  1.0000
  Ti  Ti58      1.0  0.02500  0.90326  0.09182  1.0000
  Ti  Ti59      1.0  0.03009  0.85861  0.34559  1.0000
  Ti  Ti60      1.0  0.10944  0.81861  0.82043  1.0000
  Ti  Ti61      1.0  0.30180  0.28956  0.01373  1.0000
  Ti  Ti62      1.0  0.33192  0.30799  0.36825  1.0000
  Ti  Ti63      1.0  0.33038  0.22021  0.63699  1.0000
  Ti  Ti64      1.0  0.39041  0.45774  0.79906  1.0000
  Ti  Ti65      1.0  0.25190  0.53400  0.03496  1.0000
  Ti  Ti66      1.0  0.19094  0.47169  0.30741  1.0000
  Ti  Ti67      1.0  0.23925  0.79228  0.23464  1.0000
  Ti  Ti68      1.0  0.49741  0.63543  0.93885  1.0000
  Ti  Ti69      1.0  0.20005  0.67816  0.48496  1.0000
  Ti  Ti70      1.0  0.35433  0.80881  0.57879  1.0000
  Ti  Ti71      1.0  0.53341  0.86341  0.86551  1.0000
  Ti  Ti72      1.0  0.52361  0.80065  0.16934  1.0000
  Ti  Ti73      1.0  0.54744  0.23031  0.37467  1.0000
  Ti  Ti74      1.0  0.53352  0.22512  0.70491  1.0000
  Ti  Ti75      1.0  0.54738  0.22819  0.05026  1.0000
  Ti  Ti76      1.0  0.61207  0.37936  0.05854  1.0000
  Ti  Ti77      1.0  0.58106  0.41361  0.33988  1.0000
  Ti  Ti78      1.0  0.59671  0.40562  0.73617  1.0000
  Ti  Ti79      1.0  0.68961  0.59428  0.10184  1.0000
  Ti  Ti80      1.0  0.66314  0.64328  0.38230  1.0000
  Ti  Ti81      1.0  0.73695  0.56101  0.80163  1.0000
  Ti  Ti82      1.0  0.75532  0.71665  0.89384  1.0000
  Ti  Ti83      1.0  0.65048  0.84715  0.18299  1.0000
  Ti  Ti84      1.0  0.65310  0.84363  0.64645  1.0000
  Ti  Ti85      1.0  0.83525  0.17210  0.80492  1.0000
  Ti  Ti86      1.0  0.81872  0.19145  0.13981  1.0000
  Ti  Ti87      1.0  0.80777  0.20093  0.48804  1.0000
  Ti  Ti88      1.0  0.89840  0.31651  0.10481  1.0000
  Ti  Ti89      1.0  0.88675  0.30032  0.55730  1.0000
  Ti  Ti90      1.0  0.04895  0.02748  0.49058  1.0000
  Ti  Ti91      1.0  0.05060  0.57485  0.96049  1.0000
  Ti  Ti92      1.0  0.91888  0.52785  0.44882  1.0000
  Ti  Ti93      1.0  0.96742  0.54582  0.74219  1.0000
  Ti  Ti94      1.0  0.64958  0.01277  0.16414  1.0000
  Ti  Ti95      1.0  0.76734  0.98020  0.53953  1.0000
  Ti  Ti96      1.0  0.69413  0.99259  0.84084  1.0000
  I   I1        1.0  0.10715  0.02552  0.77756  1.0000
  I   I2        1.0  0.21354  0.97583  0.06846  1.0000
  I   I3        1.0  0.34387  0.96919  0.26149  1.0000
  I   I4        1.0  0.16596  0.25733  0.58386  1.0000
  I   I5        1.0  0.17328  0.23454  0.75960  1.0000
  I   I6        1.0  0.14988  0.20385  0.12784  1.0000
  I   I7        1.0  0.94307  0.89835  0.71687  1.0000
  I   I8        1.0  0.90496  0.82729  0.76589  1.0000
  I   I9        1.0  0.99478  0.71494  0.25263  1.0000
  I   I10       1.0  0.10270  0.83683  0.29943  1.0000
  I   I11       1.0  0.13542  0.83041  0.90590  1.0000
  I   I12       1.0  0.96422  0.93299  0.09403  1.0000
  I   I13       1.0  0.30366  0.31251  0.26851  1.0000
  I   I14       1.0  0.37797  0.10715  0.58932  1.0000
  I   I15       1.0  0.28744  0.24234  0.98235  1.0000
  I   I16       1.0  0.30170  0.53484  0.00382  1.0000
  I   I17       1.0  0.24180  0.46995  0.24407  1.0000
  I   I18       1.0  0.41622  0.44041  0.69287  1.0000
  I   I19       1.0  0.44894  0.69347  0.89982  1.0000
  I   I20       1.0  0.14083  0.71120  0.51253  1.0000
  I   I21       1.0  0.20335  0.78704  0.32199  1.0000
  I   I22       1.0  0.50817  0.92400  0.83116  1.0000
  I   I23       1.0  0.52097  0.88620  0.99310  1.0000
  I   I24       1.0  0.32246  0.83712  0.48509  1.0000
  I   I25       1.0  0.57755  0.18493  0.61334  1.0000
  I   I26       1.0  0.56412  0.19462  0.95194  1.0000
  I   I27       1.0  0.59686  0.18592  0.27864  1.0000
  I   I28       1.0  0.62086  0.34681  0.30596  1.0000
  I   I29       1.0  0.65039  0.37275  0.66202  1.0000
  I   I30       1.0  0.63038  0.34433  0.96777  1.0000
  I   I31       1.0  0.62846  0.62125  0.31190  1.0000
  I   I32       1.0  0.71267  0.58167  0.69099  1.0000
  I   I33       1.0  0.66996  0.58063  0.00111  1.0000
  I   I34       1.0  0.65728  0.84130  0.07110  1.0000
  I   I35       1.0  0.67386  0.85708  0.54795  1.0000
  I   I36       1.0  0.71722  0.70910  0.80329  1.0000
  I   I37       1.0  0.79988  0.15783  0.05654  1.0000
  I   I38       1.0  0.79559  0.18931  0.37955  1.0000
  I   I39       1.0  0.79766  0.18149  0.71017  1.0000
  I   I40       1.0  0.83594  0.33704  0.49941  1.0000
  I   I41       1.0  0.08088  0.96324  0.49191  1.0000
  I   I42       1.0  0.92595  0.35823  0.13404  1.0000
  I   I43       1.0  0.86569  0.54420  0.39550  1.0000
  I   I44       1.0  0.93272  0.52239  0.68672  1.0000
  I   I45       1.0  0.00941  0.54697  0.97714  1.0000
  I   I46       1.0  0.82250  0.96251  0.48753  1.0000
  I   I47       1.0  0.75629  0.96794  0.80327  1.0000
  I   I48       1.0  0.67338  0.97210  0.06515  1.0000
  I   I49       1.0  0.38279  0.04650  0.38023  1.0000
  I   I50       1.0  0.12439  0.04069  0.00814  1.0000
  I   I51       1.0  0.26108  0.02941  0.21543  1.0000
  I   I52       1.0  0.14086  0.23329  0.38787  1.0000
  I   I53       1.0  0.12333  0.33861  0.75790  1.0000
  I   I54       1.0  0.12167  0.23053  0.97606  1.0000
  I   I55       1.0  0.93847  0.65009  0.37099  1.0000
  I   I56       1.0  0.89639  0.84172  0.60335  1.0000
  I   I57       1.0  0.93216  0.74449  0.10710  1.0000
  I   I58       1.0  0.11360  0.77247  0.17073  1.0000
  I   I59       1.0  0.04954  0.89385  0.39382  1.0000
  I   I60       1.0  0.08060  0.79274  0.74355  1.0000
  I   I61       1.0  0.32271  0.31965  0.08963  1.0000
  I   I62       1.0  0.37259  0.25346  0.39635  1.0000
  I   I63       1.0  0.31035  0.28109  0.64023  1.0000
  I   I64       1.0  0.27096  0.61898  0.91624  1.0000
  I   I65       1.0  0.20103  0.52976  0.10504  1.0000
  I   I66       1.0  0.15151  0.45992  0.24846  1.0000
  I   I67       1.0  0.28699  0.77663  0.13615  1.0000
  I   I68       1.0  0.39881  0.68077  0.76249  1.0000
  I   I69       1.0  0.20758  0.69945  0.36426  1.0000
  I   I70       1.0  0.38837  0.79756  0.67273  1.0000
  I   I71       1.0  0.56193  0.80777  0.92702  1.0000
  I   I72       1.0  0.48961  0.77454  0.19777  1.0000
  I   I73       1.0  0.52298  0.25449  0.47760  1.0000
  I   I74       1.0  0.52019  0.25769  0.81121  1.0000
  I   I75       1.0  0.53587  0.26654  0.13604  1.0000
  I   I76       1.0  0.61121  0.42761  0.23866  1.0000
  I   I77       1.0  0.53702  0.41217  0.28702  1.0000
  I   I78       1.0  0.60800  0.42087  0.85236  1.0000
  I   I79       1.0  0.71549  0.58218  0.21791  1.0000
  I   I80       1.0  0.69034  0.67641  0.42096  1.0000
  I   I81       1.0  0.76652  0.53970  0.90290  1.0000
  I   I82       1.0  0.79564  0.73455  0.93261  1.0000
  I   I83       1.0  0.68254  0.88075  0.21561  1.0000
  I   I84       1.0  0.64918  0.79869  0.71383  1.0000
  I   I85       1.0  0.86183  0.16663  0.91139  1.0000
  I   I86       1.0  0.85039  0.20027  0.23671  1.0000
  I   I87       1.0  0.84621  0.18823  0.58835  1.0000
  I   I88       1.0  0.87952  0.28421  0.04283  1.0000
  I   I89       1.0  0.95446  0.27299  0.59343  1.0000
  I   I90       1.0  0.03603  0.09621  0.46854  1.0000
  I   I91       1.0  0.07880  0.57834  0.05310  1.0000
  I   I92       1.0  0.97634  0.50289  0.50810  1.0000
  I   I93       1.0  0.01838  0.54718  0.78876  1.0000
  I   I94       1.0  0.60744  0.99379  0.18182  1.0000
  I   I95       1.0  0.71708  0.00571  0.62682  1.0000
  I   I96       1.0  0.63727  0.01701  0.91647  1.0000
  I   I97       1.0  0.33476  0.04417  0.23804  1.0000
  I   I98       1.0  0.43002  0.98329  0.53482  1.0000
  I   I99       1.0  0.20344  0.05657  0.97089  1.0000
  I   I100      1.0  0.19525  0.22830  0.25061  1.0000
  I   I101      1.0  0.20546  0.15613  0.46866  1.0000
  I   I102      1.0  0.14087  0.27971  0.87573  1.0000
  I   I103      1.0  0.91065  0.73803  0.26961  1.0000
  I   I104      1.0  0.01233  0.58873  0.48915  1.0000
  I   I105      1.0  0.86756  0.80356  0.01136  1.0000
  I   I106      1.0  0.06560  0.72426  0.82747  1.0000
  I   I107      1.0  0.04780  0.80144  0.27221  1.0000
  I   I108      1.0  0.05420  0.87582  0.81079  1.0000
  I   I109      1.0  0.36889  0.23583  0.98098  1.0000
  I   I110      1.0  0.38053  0.29849  0.26685  1.0000
  I   I111      1.0  0.32661  0.18332  0.71754  1.0000
  I   I112      1.0  0.33823  0.51257  0.77441  1.0000
  I   I113      1.0  0.23045  0.60524  0.06355  1.0000
  I   I114      1.0  0.16281  0.53576  0.25941  1.0000
  I   I115      1.0  0.27711  0.73278  0.30289  1.0000
  I   I116      1.0  0.36924  0.74601  0.09131  1.0000
  I   I117      1.0  0.48868  0.60608  0.75859  1.0000
  I   I118      1.0  0.39654  0.74511  0.54504  1.0000
  I   I119      1.0  0.33180  0.89839  0.77393  1.0000
  I   I120      1.0  0.56454  0.81291  0.09355  1.0000
  I   I121      1.0  0.58355  0.26143  0.32570  1.0000
  I   I122      1.0  0.53270  0.27846  0.62849  1.0000
  I   I123      1.0  0.57662  0.25757  0.98212  1.0000
  I   I124      1.0  0.64874  0.40987  0.04171  1.0000
  I   I125      1.0  0.65363  0.38796  0.36850  1.0000
  I   I126      1.0  0.60965  0.45820  0.70261  1.0000
  I   I127      1.0  0.73385  0.52439  0.06330  1.0000
  I   I128      1.0  0.70818  0.58290  0.37553  1.0000
  I   I129      1.0  0.77715  0.49896  0.74392  1.0000
  I   I130      1.0  0.73379  0.77035  0.81653  1.0000
  I   I131      1.0  0.82520  0.62558  0.06650  1.0000
  I   I132      1.0  0.67162  0.84209  0.36311  1.0000
  I   I133      1.0  0.87764  0.11654  0.74028  1.0000
  I   I134      1.0  0.87272  0.15059  0.08184  1.0000
  I   I135      1.0  0.87584  0.17099  0.42178  1.0000
  I   I136      1.0  0.02547  0.13889  0.62576  1.0000
  I   I137      1.0  0.02609  0.30276  0.06043  1.0000
  I   I138      1.0  0.02280  0.26339  0.49814  1.0000
  I   I139      1.0  0.08738  0.50989  0.94006  1.0000
  I   I140      1.0  0.95052  0.47263  0.38009  1.0000
  I   I141      1.0  0.01524  0.49768  0.66229  1.0000
  I   I142      1.0  0.59998  0.05945  0.06002  1.0000
  I   I143      1.0  0.75998  0.03673  0.48555  1.0000
  I   I144      1.0  0.68567  0.05227  0.79235  1.0000
  I   I145      1.0  0.42399  0.96730  0.31733  1.0000
  I   I146      1.0  0.14825  0.97850  0.93984  1.0000
  I   I147      1.0  0.29515  0.96112  0.10750  1.0000
  I   I148      1.0  0.19212  0.15619  0.28353  1.0000
  I   I149      1.0  0.20784  0.28157  0.69414  1.0000
  I   I150      1.0  0.20921  0.18597  0.91142  1.0000
  I   I151      1.0  0.96548  0.71272  0.41733  1.0000
  I   I152      1.0  0.91315  0.75310  0.64506  1.0000
  I   I153      1.0  0.97503  0.79553  0.15210  1.0000
  I   I154      1.0  0.09602  0.86216  0.12630  1.0000
  I   I155      1.0  0.00570  0.94730  0.73906  1.0000
  I   I156      1.0  0.07318  0.80309  0.89775  1.0000
  I   I157      1.0  0.31843  0.25193  0.12543  1.0000
  I   I158      1.0  0.45468  0.11907  0.60288  1.0000
  I   I159      1.0  0.32456  0.16736  0.89675  1.0000
  I   I160      1.0  0.42577  0.48388  0.81652  1.0000
  I   I161      1.0  0.27085  0.52377  0.15947  1.0000
  I   I162      1.0  0.34715  0.43018  0.59354  1.0000
  I   I163      1.0  0.28270  0.81908  0.26652  1.0000
  I   I164      1.0  0.52863  0.57865  0.98535  1.0000
  I   I165      1.0  0.21039  0.73108  0.50338  1.0000
  I   I166      1.0  0.31564  0.79513  0.63832  1.0000
  I   I167      1.0  0.47960  0.85070  0.91080  1.0000
  I   I168      1.0  0.44306  0.73828  0.39588  1.0000
  I   I169      1.0  0.60271  0.19478  0.44199  1.0000
  I   I170      1.0  0.59512  0.19892  0.76125  1.0000
  I   I171      1.0  0.62693  0.20539  0.11317  1.0000
  I   I172      1.0  0.66293  0.34660  0.14996  1.0000
  I   I173      1.0  0.70614  0.40736  0.71345  1.0000
  I   I174      1.0  0.67891  0.34187  0.82822  1.0000
  I   I175      1.0  0.65878  0.56567  0.16327  1.0000
  I   I176      1.0  0.75866  0.59037  0.57153  1.0000
  I   I177      1.0  0.69031  0.54477  0.84165  1.0000
  I   I178      1.0  0.81751  0.66451  0.84899  1.0000
  I   I179      1.0  0.71609  0.79364  0.22834  1.0000
  I   I180      1.0  0.69394  0.71660  0.65427  1.0000
  I   I181      1.0  0.81524  0.14038  0.87767  1.0000
  I   I182      1.0  0.82851  0.14434  0.23045  1.0000
  I   I183      1.0  0.83049  0.12966  0.51579  1.0000
  I   I184      1.0  0.94331  0.30588  0.01502  1.0000
  I   I185      1.0  0.94917  0.32774  0.41282  1.0000
  I   I186      1.0  0.08026  0.04299  0.57577  1.0000
  I   I187      1.0  0.88696  0.55839  0.20962  1.0000
  I   I188      1.0  0.92101  0.48472  0.54697  1.0000
  I   I189      1.0  0.98294  0.50138  0.84540  1.0000
  I   I190      1.0  0.80330  0.95551  0.31278  1.0000
  I   I191      1.0  0.78814  0.99962  0.64740  1.0000
  I   I192      1.0  0.71911  0.01124  0.94783  1.0000
  I   I193      1.0  0.48951  0.95922  0.41595  1.0000
  I   I194      1.0  0.16663  0.03462  0.85815  1.0000
  I   I195      1.0  0.31007  0.05038  0.08652  1.0000
  I   I196      1.0  0.22159  0.23043  0.40405  1.0000
  I   I197      1.0  0.18997  0.34239  0.82374  1.0000
  I   I198      1.0  0.19526  0.24151  0.04138  1.0000
  I   I199      1.0  0.93814  0.66372  0.53907  1.0000
  I   I200      1.0  0.98070  0.80800  0.64729  1.0000
  I   I201      1.0  0.88892  0.82085  0.17734  1.0000
  I   I202      1.0  0.03553  0.83656  0.08686  1.0000
  I   I203      1.0  0.09271  0.93947  0.70879  1.0000
  I   I204      1.0  0.15304  0.70024  0.89122  1.0000
  I   I205      1.0  0.40863  0.24336  0.13397  1.0000
  I   I206      1.0  0.38694  0.20478  0.69130  1.0000
  I   I207      1.0  0.41048  0.14568  0.94819  1.0000
  I   I208      1.0  0.27832  0.65200  0.07146  1.0000
  I   I209      1.0  0.18297  0.59686  0.21260  1.0000
  I   I210      1.0  0.26991  0.50196  0.67714  1.0000
  I   I211      1.0  0.37707  0.73374  0.25670  1.0000
  I   I212      1.0  0.54678  0.61683  0.86574  1.0000
  I   I213      1.0  0.29488  0.67411  0.41468  1.0000
  I   I214      1.0  0.38393  0.80840  0.82325  1.0000
  I   I215      1.0  0.51813  0.77044  0.02885  1.0000
  I   I216      1.0  0.49691  0.76035  0.49521  1.0000
  I   I217      1.0  0.57669  0.29008  0.50163  1.0000
  I   I218      1.0  0.58056  0.28681  0.83443  1.0000
  I   I219      1.0  0.60454  0.28155  0.18513  1.0000
  I   I220      1.0  0.70875  0.38144  0.22546  1.0000
  I   I221      1.0  0.68127  0.39907  0.53436  1.0000
  I   I222      1.0  0.69029  0.41381  0.89226  1.0000
  I   I223      1.0  0.73317  0.50694  0.27096  1.0000
  I   I224      1.0  0.83350  0.52827  0.64029  1.0000
  I   I225      1.0  0.75609  0.46453  0.92727  1.0000
  I   I226      1.0  0.88099  0.64887  0.96201  1.0000
  I   I227      1.0  0.73511  0.88375  0.33971  1.0000
  I   I228      1.0  0.72232  0.79915  0.66432  1.0000
  I   I229      1.0  0.91885  0.07894  0.95104  1.0000
  I   I230      1.0  0.92229  0.11521  0.29279  1.0000
  I   I231      1.0  0.90272  0.09610  0.59261  1.0000
  I   I232      1.0  0.03043  0.23091  0.13266  1.0000
  I   I233      1.0  0.90228  0.34650  0.55219  1.0000
  I   I234      1.0  0.00311  0.07018  0.69563  1.0000
  I   I235      1.0  0.98069  0.47578  0.21258  1.0000
  I   I236      1.0  0.02366  0.41769  0.56808  1.0000
  I   I237      1.0  0.07860  0.46034  0.81041  1.0000
  I   I238      1.0  0.74812  0.03345  0.29109  1.0000
  I   I239      1.0  0.71704  0.08536  0.67714  1.0000
  I   I240      1.0  0.65027  0.09093  0.97819  1.0000
  I   I241      1.0  0.46454  0.89733  0.43356  1.0000
  I   I242      1.0  0.24003  0.96758  0.92257  1.0000
  I   I243      1.0  0.37004  0.96344  0.10638  1.0000
  I   I244      1.0  0.26669  0.15190  0.33447  1.0000
  I   I245      1.0  0.23394  0.24937  0.83880  1.0000
  I   I246      1.0  0.22817  0.14671  0.06195  1.0000
  I   I247      1.0  0.02459  0.66005  0.49973  1.0000
  I   I248      1.0  0.97437  0.74489  0.74929  1.0000
  I   I249      1.0  0.94735  0.79485  0.30953  1.0000
  I   I250      1.0  0.02594  0.88805  0.23372  1.0000
  I   I251      1.0  0.05882  0.89888  0.60308  1.0000
  I   I252      1.0  0.13178  0.70484  0.72018  1.0000
  I   I253      1.0  0.36828  0.22054  0.25362  1.0000
  I   I254      1.0  0.40615  0.11017  0.74502  1.0000
  I   I255      1.0  0.35043  0.15156  0.06155  1.0000
  I   I256      1.0  0.35484  0.58093  0.99852  1.0000
  I   I257      1.0  0.23804  0.54613  0.32631  1.0000
  I   I258      1.0  0.34947  0.51690  0.62491  1.0000
  I   I259      1.0  0.35000  0.82811  0.18509  1.0000
  I   I260      1.0  0.46407  0.69981  0.73463  1.0000
  I   I261      1.0  0.27313  0.75801  0.45445  1.0000
  I   I262      1.0  0.28835  0.84572  0.80135  1.0000
  I   I263      1.0  0.46836  0.85272  0.09920  1.0000
  I   I264      1.0  0.49163  0.68889  0.53272  1.0000
  I   I265      1.0  0.64075  0.21943  0.56059  1.0000
  I   I266      1.0  0.64212  0.19532  0.88726  1.0000
  I   I267      1.0  0.67580  0.20492  0.24347  1.0000
  I   I268      1.0  0.71448  0.30781  0.29355  1.0000
  I   I269      1.0  0.66606  0.47712  0.59283  1.0000
  I   I270      1.0  0.71223  0.32337  0.97787  1.0000
  I   I271      1.0  0.64693  0.53190  0.33846  1.0000
  I   I272      1.0  0.75859  0.51405  0.56624  1.0000
  I   I273      1.0  0.67104  0.49898  0.97451  1.0000
  I   I274      1.0  0.85313  0.57592  0.93104  1.0000
  I   I275      1.0  0.77120  0.79103  0.35280  1.0000
  I   I276      1.0  0.77900  0.71426  0.69783  1.0000
  I   I277      1.0  0.84834  0.07410  0.00315  1.0000
  I   I278      1.0  0.86319  0.09462  0.35941  1.0000
  I   I279      1.0  0.83145  0.09002  0.66377  1.0000
  I   I280      1.0  0.99905  0.30768  0.21583  1.0000
  I   I281      1.0  0.98810  0.35655  0.52818  1.0000
  I   I282      1.0  0.95035  0.14045  0.59666  1.0000
  I   I283      1.0  0.90072  0.47672  0.25881  1.0000
  I   I284      1.0  0.96461  0.42820  0.65319  1.0000
  I   I285      1.0  0.03790  0.46401  0.97123  1.0000
  I   I286      1.0  0.82706  0.02260  0.36421  1.0000
  I   I287      1.0  0.77935  0.03260  0.80177  1.0000
  I   I288      1.0  0.68410  0.04603  0.10728  1.0000
  I   I289      1.0  0.37106  0.96550  0.41324  1.0000
  I   I290      1.0  0.05454  0.03536  0.92029  1.0000
  I   I291      1.0  0.23307  0.95362  0.24176  1.0000
  I   I292      1.0  0.10183  0.20298  0.27474  1.0000
  I   I293      1.0  0.08493  0.31161  0.64223  1.0000
  I   I294      1.0  0.17914  0.15339  0.82109  1.0000
  I   I295      1.0  0.02799  0.63309  0.34523  1.0000
  I   I296      1.0  0.97543  0.88161  0.55679  1.0000
  I   I297      1.0  0.90107  0.86350  0.06123  1.0000
  I   I298      1.0  0.03387  0.95373  0.10384  1.0000
  I   I299      1.0  0.03950  0.81194  0.41697  1.0000
  I   I300      1.0  0.15997  0.75853  0.81427  1.0000
  I   I301      1.0  0.24528  0.31643  0.06518  1.0000
  I   I302      1.0  0.28184  0.32520  0.43929  1.0000
  I   I303      1.0  0.28423  0.22104  0.57167  1.0000
  I   I304      1.0  0.41246  0.41561  0.87726  1.0000
  I   I305      1.0  0.26543  0.47618  0.00297  1.0000
  I   I306      1.0  0.17779  0.49758  0.41036  1.0000
  I   I307      1.0  0.20372  0.85494  0.20714  1.0000
  I   I308      1.0  0.45020  0.62010  0.90451  1.0000
  I   I309      1.0  0.18441  0.63241  0.45772  1.0000
  I   I310      1.0  0.32383  0.86958  0.63373  1.0000
  I   I311      1.0  0.58930  0.86412  0.87884  1.0000
  I   I312      1.0  0.52004  0.83375  0.26600  1.0000
  I   I313      1.0  0.53053  0.18478  0.39066  1.0000
  I   I314      1.0  0.53110  0.17299  0.74174  1.0000
  I   I315      1.0  0.54333  0.18137  0.10615  1.0000
  I   I316      1.0  0.56741  0.37522  0.12221  1.0000
  I   I317      1.0  0.55470  0.47705  0.35810  1.0000
  I   I318      1.0  0.59707  0.35192  0.75384  1.0000
  I   I319      1.0  0.65085  0.65399  0.11379  1.0000
  I   I320      1.0  0.62331  0.65591  0.47793  1.0000
  I   I321      1.0  0.69688  0.62121  0.82712  1.0000
  I   I322      1.0  0.76443  0.65984  0.96330  1.0000
  I   I323      1.0  0.63486  0.80805  0.23257  1.0000
  I   I324      1.0  0.58812  0.86883  0.64384  1.0000
  I   I325      1.0  0.77773  0.22390  0.84385  1.0000
  I   I326      1.0  0.76313  0.22374  0.17794  1.0000
  I   I327      1.0  0.75736  0.20640  0.53413  1.0000
  I   I328      1.0  0.84674  0.35148  0.16606  1.0000
  I   I329      1.0  0.90419  0.24271  0.51883  1.0000
  I   I330      1.0  0.99436  0.04503  0.54277  1.0000
  I   I331      1.0  0.00140  0.63162  0.95636  1.0000
  I   I332      1.0  0.88752  0.57966  0.51424  1.0000
  I   I333      1.0  0.92250  0.58998  0.81308  1.0000
  I   I334      1.0  0.63267  0.06092  0.23645  1.0000
  I   I335      1.0  0.77891  0.92314  0.57760  1.0000
  I   I336      1.0  0.69984  0.93697  0.87089  1.0000
  I   I337      1.0  0.30276  0.05447  0.38841  1.0000
  I   I338      1.0  0.08752  0.09681  0.88576  1.0000
  I   I339      1.0  0.18448  0.04247  0.18151  1.0000
  I   I340      1.0  0.10031  0.28551  0.24652  1.0000
  I   I341      1.0  0.12574  0.36201  0.58883  1.0000
  I   I342      1.0  0.09114  0.22609  0.81990  1.0000
  I   I343      1.0  0.98087  0.64293  0.22294  1.0000
  I   I344      1.0  0.89127  0.92811  0.58992  1.0000
  I   I345      1.0  0.96094  0.78231  0.96560  1.0000
  I   I346      1.0  0.02383  0.89984  0.97916  1.0000
  I   I347      1.0  0.97186  0.89474  0.34856  1.0000
  I   I348      1.0  0.12202  0.84920  0.72643  1.0000
  I   I349      1.0  0.28863  0.33373  0.93426  1.0000
  I   I350      1.0  0.34118  0.35748  0.41011  1.0000
  I   I351      1.0  0.37162  0.19082  0.55023  1.0000
  I   I352      1.0  0.35020  0.43030  0.76097  1.0000
  I   I353      1.0  0.22834  0.55958  0.93602  1.0000
  I   I354      1.0  0.22700  0.41334  0.33612  1.0000
  I   I355      1.0  0.22089  0.76967  0.15132  1.0000
  I   I356      1.0  0.51522  0.67021  0.00251  1.0000
  I   I357      1.0  0.24055  0.64232  0.56473  1.0000
  I   I358      1.0  0.40434  0.81416  0.50415  1.0000
  I   I359      1.0  0.53426  0.83147  0.77828  1.0000
  I   I360      1.0  0.57424  0.74546  0.19666  1.0000
  I   I361      1.0  0.50301  0.26441  0.31399  1.0000
  I   I362      1.0  0.47471  0.24533  0.66255  1.0000
  I   I363      1.0  0.48841  0.25952  0.01341  1.0000
  I   I364      1.0  0.56277  0.42973  0.00954  1.0000
  I   I365      1.0  0.57590  0.39458  0.44683  1.0000
  I   I366      1.0  0.53769  0.43339  0.70557  1.0000
  I   I367      1.0  0.74143  0.59849  0.07674  1.0000
  I   I368      1.0  0.63657  0.69019  0.30671  1.0000
  I   I369      1.0  0.77633  0.58492  0.76026  1.0000
  I   I370      1.0  0.71035  0.74736  0.96633  1.0000
  I   I371      1.0  0.59503  0.89570  0.17843  1.0000
  I   I372      1.0  0.65653  0.87677  0.73096  1.0000
  I   I373      1.0  0.86201  0.20728  0.77262  1.0000
  I   I374      1.0  0.82031  0.23946  0.07988  1.0000
  I   I375      1.0  0.79291  0.25993  0.48579  1.0000
  I   I376      1.0  0.94145  0.27446  0.16738  1.0000
  I   I377      1.0  0.86130  0.30204  0.65736  1.0000
  I   I378      1.0  0.02893  0.03470  0.38349  1.0000
  I   I379      1.0  0.07809  0.58555  0.87052  1.0000
  I   I380      1.0  0.94420  0.54946  0.35032  1.0000
  I   I381      1.0  0.95211  0.59043  0.66524  1.0000
  I   I382      1.0  0.69602  0.96838  0.22999  1.0000
  I   I383      1.0  0.73563  0.97774  0.45156  1.0000
  I   I384      1.0  0.65616  0.99395  0.75985  1.0000
