data_image0
_chemical_formula_structural       Ti96I384
_chemical_formula_sum              "Ti96 I384"
_cell_length_a       69.3678
_cell_length_b       69.1361
_cell_length_c       33.8829
_cell_angle_alpha    88.7757
_cell_angle_beta     88.7757
_cell_angle_gamma    62.1586

_space_group_name_H-M_alt    "P 1"
_space_group_IT_number       1

loop_
  _space_group_symop_operation_xyz
  'x, y, z'

loop_
  _atom_site_type_symbol
  _atom_site_label
  _atom_site_symmetry_multiplicity
  _atom_site_fract_x
  _atom_site_fract_y
  _atom_site_fract_z
  _atom_site_occupancy
  Ti  Ti1       1.0  0.07429  0.91720  0.66310  1.0000
  Ti  Ti2       1.0  0.01567  0.15611  0.29311  1.0000
  Ti  Ti3       1.0  0.43769  0.96611  0.49795  1.0000
  Ti  Ti4       1.0  0.93284  0.41019  0.46902  1.0000
  Ti  Ti5       1.0  0.28080  0.70431  0.21064  1.0000
  Ti  Ti6       1.0  0.62114  0.98635  0.11930  1.0000
  Ti  Ti7       1.0  0.95952  0.52419  0.59880  1.0000
  Ti  Ti8       1.0  0.28976  0.63741  0.37546  1.0000
  Ti  Ti9       1.0  0.30425  0.06141  0.73604  1.0000
  Ti  Ti10      1.0  0.15645  0.53484  0.66038  1.0000
  Ti  Ti11      1.0  0.21985  0.34904  0.56384  1.0000
  Ti  Ti12      1.0  0.02628  0.60963  0.06200  1.0000
  Ti  Ti13      1.0  0.83398  0.20946  0.64143  1.0000
  Ti  Ti14      1.0  0.85956  0.06825  0.68392  1.0000
  Ti  Ti15      1.0  0.76814  0.88839  0.56577  1.0000
  Ti  Ti16      1.0  0.10708  0.56705  0.55341  1.0000
  Ti  Ti17      1.0  0.30559  0.96704  0.53658  1.0000
  Ti  Ti18      1.0  0.53792  0.78769  0.67666  1.0000
  Ti  Ti19      1.0  0.53797  0.60931  0.58240  1.0000
  Ti  Ti20      1.0  0.35262  0.18386  0.63913  1.0000
  Ti  Ti21      1.0  0.27023  0.59447  0.44038  1.0000
  Ti  Ti22      1.0  0.62249  0.89353  0.43902  1.0000
  Ti  Ti23      1.0  0.34372  0.13074  0.38439  1.0000
  Ti  Ti24      1.0  0.30021  0.69948  0.65519  1.0000
  Ti  Ti25      1.0  0.49191  0.97749  0.17420  1.0000
  Ti  Ti26      1.0  0.18388  0.84791  0.01722  1.0000
  Ti  Ti27      1.0  0.76178  0.19758  0.95438  1.0000
  Ti  Ti28      1.0  0.58880  0.73644  0.01429  1.0000
  Ti  Ti29      1.0  0.04678  0.77613  0.45184  1.0000
  Ti  Ti30      1.0  0.38875  0.92448  0.84508  1.0000
  Ti  Ti31      1.0  0.15833  0.38649  0.98265  1.0000
  Ti  Ti32      1.0  0.15942  0.13643  0.72608  1.0000
  Ti  Ti33      1.0  0.22219  0.86458  0.53124  1.0000
  Ti  Ti34      1.0  0.42172  0.30722  0.18374  1.0000
  Ti  Ti35      1.0  0.67601  0.56437  0.62651  1.0000
  Ti  Ti36      1.0  0.15413  0.15829  0.19157  1.0000
  Ti  Ti37      1.0  0.09239  0.24198  0.55273  1.0000
  Ti  Ti38      1.0  0.37187  0.56099  0.23529  1.0000
  Ti  Ti39      1.0  0.09148  0.48440  0.23386  1.0000
  Ti  Ti40      1.0  0.05387  0.46731  0.78616  1.0000
  Ti  Ti41      1.0  0.34345  0.31940  0.43031  1.0000
  Ti  Ti42      1.0  0.18094  0.94312  0.60231  1.0000
  Ti  Ti43      1.0  0.30830  0.96637  0.16924  1.0000
  Ti  Ti44      1.0  0.68892  0.85871  0.08416  1.0000
  Ti  Ti45      1.0  0.24879  0.37279  0.30487  1.0000
  Ti  Ti46      1.0  0.80969  0.39196  0.32358  1.0000
  Ti  Ti47      1.0  0.42480  0.54545  0.62492  1.0000
  Ti  Ti48      1.0  0.83994  0.02205  0.34069  1.0000
  Ti  Ti49      1.0  0.01805  0.10373  0.50918  1.0000
  Ti  Ti50      1.0  0.14034  0.32261  0.09238  1.0000
  Ti  Ti51      1.0  0.05843  0.16431  0.30968  1.0000
  Ti  Ti52      1.0  0.68953  0.14875  0.78366  1.0000
  Ti  Ti53      1.0  0.36666  0.77509  0.41479  1.0000
  Ti  Ti54      1.0  0.84868  0.93872  0.04329  1.0000
  Ti  Ti55      1.0  0.99747  0.51847  0.52080  1.0000
  Ti  Ti56      1.0  0.71680  0.31851  0.09757  1.0000
  Ti  Ti57      1.0  0.35172  0.06166  0.63413  1.0000
  Ti  Ti58      1.0  0.61543  0.31873  0.67044  1.0000
  Ti  Ti59      1.0  0.58950  0.30371  0.87206  1.0000
  Ti  Ti60      1.0  0.96946  0.65254  0.02655  1.0000
  Ti  Ti61      1.0  0.76799  0.84276  0.53239  1.0000
  Ti  Ti62      1.0  0.81094  0.19756  0.53234  1.0000
  Ti  Ti63      1.0  0.91165  0.04352  0.64798  1.0000
  Ti  Ti64      1.0  0.54439  0.74596  0.72456  1.0000
  Ti  Ti65      1.0  0.78970  0.98943  0.77419  1.0000
  Ti  Ti66      1.0  0.37050  0.22994  0.85408  1.0000
  Ti  Ti67      1.0  0.50850  0.91849  0.28311  1.0000
  Ti  Ti68      1.0  0.53050  0.64880  0.66348  1.0000
  Ti  Ti69      1.0  0.13444  0.87141  0.96115  1.0000
  Ti  Ti70      1.0  0.35216  0.92414  0.21870  1.0000
  Ti  Ti71      1.0  0.30177  0.16891  0.29805  1.0000
  Ti  Ti72      1.0  0.42348  0.47170  0.65336  1.0000
  Ti  Ti73      1.0  0.79093  0.13767  0.99258  1.0000
  Ti  Ti74      1.0  0.53624  0.00497  0.22146  1.0000
  Ti  Ti75      1.0  0.32571  0.79962  0.91301  1.0000
  Ti  Ti76      1.0  0.41048  0.85464  0.80182  1.0000
  Ti  Ti77      1.0  0.59188  0.78436  0.03728  1.0000
  Ti  Ti78      1.0  0.09064  0.71307  0.49409  1.0000
  Ti  Ti79      1.0  0.60331  0.63777  0.32373  1.0000
  Ti  Ti80      1.0  0.98699  0.35619  0.41882  1.0000
  Ti  Ti81      1.0  0.10547  0.13589  0.70241  1.0000
  Ti  Ti82      1.0  0.46996  0.23834  0.25838  1.0000
  Ti  Ti83      1.0  0.70489  0.60547  0.62895  1.0000
  Ti  Ti84      1.0  0.14791  0.15739  0.10902  1.0000
  Ti  Ti85      1.0  0.08679  0.21190  0.49396  1.0000
  Ti  Ti86      1.0  0.39035  0.25366  0.94677  1.0000
  Ti  Ti87      1.0  0.21657  0.44031  0.27815  1.0000
  Ti  Ti88      1.0  0.58655  0.16423  0.16518  1.0000
  Ti  Ti89      1.0  0.34349  0.36501  0.41808  1.0000
  Ti  Ti90      1.0  0.15421  0.00444  0.57718  1.0000
  Ti  Ti91      1.0  0.17970  0.62659  0.84143  1.0000
  Ti  Ti92      1.0  0.35607  0.68540  0.97516  1.0000
  Ti  Ti93      1.0  0.15982  0.74318  0.13882  1.0000
  Ti  Ti94      1.0  0.81181  0.98977  0.31392  1.0000
  Ti  Ti95      1.0  0.72933  0.43250  0.63818  1.0000
  Ti  Ti96      1.0  0.45528  0.54529  0.75313  1.0000
  I   I1        1.0  0.42789  0.57484  0.58082  1.0000
  I   I2        1.0  0.08325  0.12826  0.26739  1.0000
  I   I3        1.0  0.99431  0.14459  0.49194  1.0000
  I   I4        1.0  0.34247  0.80941  0.37572  1.0000
  I   I5        1.0  0.59699  0.96621  0.10550  1.0000
  I   I6        1.0  0.87239  0.89877  0.06996  1.0000
  I   I7        1.0  0.25342  0.64210  0.41918  1.0000
  I   I8        1.0  0.70031  0.29749  0.06540  1.0000
  I   I9        1.0  0.34959  0.09144  0.57818  1.0000
  I   I10       1.0  0.13555  0.55935  0.48833  1.0000
  I   I11       1.0  0.22385  0.32135  0.62218  1.0000
  I   I12       1.0  0.28012  0.72142  0.27468  1.0000
  I   I13       1.0  0.86155  0.16726  0.65611  1.0000
  I   I14       1.0  0.88053  0.09026  0.64074  1.0000
  I   I15       1.0  0.76253  0.91796  0.51537  1.0000
  I   I16       1.0  0.08236  0.55338  0.58754  1.0000
  I   I17       1.0  0.34911  0.26096  0.91793  1.0000
  I   I18       1.0  0.50279  0.81325  0.71847  1.0000
  I   I19       1.0  0.39523  0.17946  0.64116  1.0000
  I   I20       1.0  0.20734  0.38592  0.59606  1.0000
  I   I21       1.0  0.33063  0.61570  0.34764  1.0000
  I   I22       1.0  0.36472  0.08574  0.38393  1.0000
  I   I23       1.0  0.30958  0.19631  0.24526  1.0000
  I   I24       1.0  0.38547  0.93886  0.22390  1.0000
  I   I25       1.0  0.52400  0.04278  0.18707  1.0000
  I   I26       1.0  0.36283  0.76523  0.91763  1.0000
  I   I27       1.0  0.80840  0.16074  0.94229  1.0000
  I   I28       1.0  0.57312  0.72280  0.94903  1.0000
  I   I29       1.0  0.05194  0.73562  0.42882  1.0000
  I   I30       1.0  0.35593  0.93486  0.79525  1.0000
  I   I31       1.0  0.00915  0.37604  0.44134  1.0000
  I   I32       1.0  0.13555  0.14874  0.65768  1.0000
  I   I33       1.0  0.61391  0.65592  0.25722  1.0000
  I   I34       1.0  0.64756  0.56697  0.67181  1.0000
  I   I35       1.0  0.18609  0.12309  0.14082  1.0000
  I   I36       1.0  0.39159  0.34969  0.17268  1.0000
  I   I37       1.0  0.05917  0.26120  0.49826  1.0000
  I   I38       1.0  0.08578  0.45316  0.20370  1.0000
  I   I39       1.0  0.08239  0.21266  0.58164  1.0000
  I   I40       1.0  0.36375  0.28453  0.48721  1.0000
  I   I41       1.0  0.21602  0.90746  0.56755  1.0000
  I   I42       1.0  0.06269  0.44067  0.84551  1.0000
  I   I43       1.0  0.61880  0.35241  0.68929  1.0000
  I   I44       1.0  0.73149  0.85267  0.08047  1.0000
  I   I45       1.0  0.21802  0.39622  0.24426  1.0000
  I   I46       1.0  0.76388  0.39353  0.62132  1.0000
  I   I47       1.0  0.38778  0.54775  0.60020  1.0000
  I   I48       1.0  0.81524  0.06404  0.34866  1.0000
  I   I49       1.0  0.00564  0.09184  0.45044  1.0000
  I   I50       1.0  0.04929  0.19058  0.23891  1.0000
  I   I51       1.0  0.08754  0.16934  0.34064  1.0000
  I   I52       1.0  0.94476  0.37083  0.41403  1.0000
  I   I53       1.0  0.40179  0.75563  0.36982  1.0000
  I   I54       1.0  0.86663  0.96229  0.05838  1.0000
  I   I55       1.0  0.96948  0.49573  0.53676  1.0000
  I   I56       1.0  0.31343  0.56794  0.44819  1.0000
  I   I57       1.0  0.31366  0.03051  0.78594  1.0000
  I   I58       1.0  0.19673  0.50967  0.63966  1.0000
  I   I59       1.0  0.55729  0.33090  0.82833  1.0000
  I   I60       1.0  0.99825  0.65367  0.08725  1.0000
  I   I61       1.0  0.82779  0.20354  0.46899  1.0000
  I   I62       1.0  0.86556  0.21752  0.66396  1.0000
  I   I63       1.0  0.93447  0.06099  0.60988  1.0000
  I   I64       1.0  0.14751  0.50596  0.70160  1.0000
  I   I65       1.0  0.83317  0.98065  0.77482  1.0000
  I   I66       1.0  0.34477  0.21584  0.88726  1.0000
  I   I67       1.0  0.49795  0.64969  0.60018  1.0000
  I   I68       1.0  0.33937  0.17077  0.57756  1.0000
  I   I69       1.0  0.10170  0.87541  0.00700  1.0000
  I   I70       1.0  0.35107  0.90789  0.29344  1.0000
  I   I71       1.0  0.37441  0.13846  0.40345  1.0000
  I   I72       1.0  0.42856  0.44333  0.70508  1.0000
  I   I73       1.0  0.79557  0.10994  0.93239  1.0000
  I   I74       1.0  0.22526  0.82634  0.01871  1.0000
  I   I75       1.0  0.17664  0.86425  0.93496  1.0000
  I   I76       1.0  0.62451  0.70730  0.98592  1.0000
  I   I77       1.0  0.61802  0.75034  0.07863  1.0000
  I   I78       1.0  0.09353  0.92348  0.71817  1.0000
  I   I79       1.0  0.20734  0.88715  0.46498  1.0000
  I   I80       1.0  0.12251  0.38563  0.96578  1.0000
  I   I81       1.0  0.15866  0.09679  0.73073  1.0000
  I   I82       1.0  0.46558  0.19766  0.25774  1.0000
  I   I83       1.0  0.72222  0.62038  0.67485  1.0000
  I   I84       1.0  0.18078  0.17568  0.18459  1.0000
  I   I85       1.0  0.12808  0.19749  0.51003  1.0000
  I   I86       1.0  0.40070  0.21451  0.96894  1.0000
  I   I87       1.0  0.10035  0.47633  0.31003  1.0000
  I   I88       1.0  0.09206  0.46865  0.79038  1.0000
  I   I89       1.0  0.35103  0.36208  0.33908  1.0000
  I   I90       1.0  0.17357  0.02835  0.60089  1.0000
  I   I91       1.0  0.19636  0.63760  0.89805  1.0000
  I   I92       1.0  0.35361  0.71317  0.02769  1.0000
  I   I93       1.0  0.68372  0.86974  0.15605  1.0000
  I   I94       1.0  0.77802  0.00168  0.26937  1.0000
  I   I95       1.0  0.84676  0.37598  0.35494  1.0000
  I   I96       1.0  0.43060  0.54992  0.82083  1.0000
  I   I97       1.0  0.45887  0.94454  0.56620  1.0000
  I   I98       1.0  0.09248  0.92625  0.60388  1.0000
  I   I99       1.0  0.97765  0.16217  0.32475  1.0000
  I   I100      1.0  0.89645  0.41106  0.49284  1.0000
  I   I101      1.0  0.66850  0.13550  0.83207  1.0000
  I   I102      1.0  0.30433  0.66192  0.23082  1.0000
  I   I103      1.0  0.97763  0.54469  0.64417  1.0000
  I   I104      1.0  0.01733  0.49281  0.57552  1.0000
  I   I105      1.0  0.30715  0.07887  0.64876  1.0000
  I   I106      1.0  0.04709  0.57338  0.01408  1.0000
  I   I107      1.0  0.15702  0.56427  0.70945  1.0000
  I   I108      1.0  0.98424  0.61104  0.02486  1.0000
  I   I109      1.0  0.81137  0.86253  0.59771  1.0000
  I   I110      1.0  0.80438  0.19599  0.61393  1.0000
  I   I111      1.0  0.94974  0.00507  0.64772  1.0000
  I   I112      1.0  0.57125  0.76503  0.73993  1.0000
  I   I113      1.0  0.77970  0.98791  0.70019  1.0000
  I   I114      1.0  0.33837  0.97572  0.52394  1.0000
  I   I115      1.0  0.47738  0.91997  0.33312  1.0000
  I   I116      1.0  0.52772  0.88507  0.32808  1.0000
  I   I117      1.0  0.51515  0.68952  0.64876  1.0000
  I   I118      1.0  0.62145  0.89305  0.36392  1.0000
  I   I119      1.0  0.38400  0.89365  0.17098  1.0000
  I   I120      1.0  0.44857  0.45742  0.59434  1.0000
  I   I121      1.0  0.74774  0.17246  0.99135  1.0000
  I   I122      1.0  0.46084  0.99880  0.12282  1.0000
  I   I123      1.0  0.30202  0.80988  0.84805  1.0000
  I   I124      1.0  0.41692  0.89520  0.79084  1.0000
  I   I125      1.0  0.55605  0.77252  0.03696  1.0000
  I   I126      1.0  0.05228  0.75292  0.52803  1.0000
  I   I127      1.0  0.25442  0.84419  0.59225  1.0000
  I   I128      1.0  0.91077  0.44563  0.43427  1.0000
  I   I129      1.0  0.19643  0.10791  0.77187  1.0000
  I   I130      1.0  0.11471  0.14990  0.13570  1.0000
  I   I131      1.0  0.43229  0.25868  0.21222  1.0000
  I   I132      1.0  0.73234  0.57134  0.58316  1.0000
  I   I133      1.0  0.05105  0.52016  0.23799  1.0000
  I   I134      1.0  0.40951  0.52439  0.22737  1.0000
  I   I135      1.0  0.39263  0.25606  0.85844  1.0000
  I   I136      1.0  0.14112  0.97384  0.55293  1.0000
  I   I137      1.0  0.59078  0.13047  0.20448  1.0000
  I   I138      1.0  0.33935  0.31314  0.35743  1.0000
  I   I139      1.0  0.18416  0.58765  0.82550  1.0000
  I   I140      1.0  0.31602  0.69694  0.95462  1.0000
  I   I141      1.0  0.12609  0.74624  0.09600  1.0000
  I   I142      1.0  0.79708  0.02461  0.36269  1.0000
  I   I143      1.0  0.81868  0.42218  0.27895  1.0000
  I   I144      1.0  0.45661  0.58028  0.72562  1.0000
  I   I145      1.0  0.03381  0.94676  0.66916  1.0000
  I   I146      1.0  0.03279  0.10999  0.27332  1.0000
  I   I147      1.0  0.40215  0.96303  0.48232  1.0000
  I   I148      1.0  0.72935  0.12646  0.74435  1.0000
  I   I149      1.0  0.29414  0.71956  0.15405  1.0000
  I   I150      1.0  0.60072  0.01216  0.17092  1.0000
  I   I151      1.0  0.00234  0.49620  0.44794  1.0000
  I   I152      1.0  0.30123  0.66650  0.40076  1.0000
  I   I153      1.0  0.35578  0.03294  0.58296  1.0000
  I   I154      1.0  0.31855  0.93646  0.12141  1.0000
  I   I155      1.0  0.25765  0.35042  0.54892  1.0000
  I   I156      1.0  0.93058  0.66157  0.99889  1.0000
  I   I157      1.0  0.77170  0.90720  0.63151  1.0000
  I   I158      1.0  0.89543  0.02938  0.59129  1.0000
  I   I159      1.0  0.79109  0.80815  0.48669  1.0000
  I   I160      1.0  0.55890  0.74600  0.64305  1.0000
  I   I161      1.0  0.31134  0.95913  0.61523  1.0000
  I   I162      1.0  0.50660  0.76456  0.68801  1.0000
  I   I163      1.0  0.53255  0.61264  0.50713  1.0000
  I   I164      1.0  0.55566  0.64919  0.71387  1.0000
  I   I165      1.0  0.23891  0.58542  0.43171  1.0000
  I   I166      1.0  0.64592  0.85782  0.47751  1.0000
  I   I167      1.0  0.26934  0.19913  0.34535  1.0000
  I   I168      1.0  0.29746  0.66867  0.61208  1.0000
  I   I169      1.0  0.52274  0.99063  0.14927  1.0000
  I   I170      1.0  0.53431  0.01673  0.29696  1.0000
  I   I171      1.0  0.80747  0.14749  0.05519  1.0000
  I   I172      1.0  0.39786  0.82274  0.81553  1.0000
  I   I173      1.0  0.07741  0.69105  0.53939  1.0000
  I   I174      1.0  0.38391  0.87636  0.86921  1.0000
  I   I175      1.0  0.19321  0.35115  0.97639  1.0000
  I   I176      1.0  0.12041  0.15950  0.76085  1.0000
  I   I177      1.0  0.61590  0.60381  0.37126  1.0000
  I   I178      1.0  0.47247  0.27651  0.27521  1.0000
  I   I179      1.0  0.70837  0.63025  0.57418  1.0000
  I   I180      1.0  0.12370  0.18493  0.23137  1.0000
  I   I181      1.0  0.08544  0.21694  0.41508  1.0000
  I   I182      1.0  0.37603  0.21194  0.78167  1.0000
  I   I183      1.0  0.21530  0.47593  0.31234  1.0000
  I   I184      1.0  0.61385  0.14820  0.10942  1.0000
  I   I185      1.0  0.31561  0.30483  0.44626  1.0000
  I   I186      1.0  0.19871  0.93582  0.67133  1.0000
  I   I187      1.0  0.37889  0.65224  0.92749  1.0000
  I   I188      1.0  0.65016  0.87991  0.05519  1.0000
  I   I189      1.0  0.26192  0.33666  0.26050  1.0000
  I   I190      1.0  0.78810  0.41854  0.38824  1.0000
  I   I191      1.0  0.11721  0.35980  0.13305  1.0000
  I   I192      1.0  0.86798  0.02758  0.30501  1.0000
  I   I193      1.0  0.08820  0.76610  0.44231  1.0000
  I   I194      1.0  0.11719  0.30318  0.10366  1.0000
  I   I195      1.0  0.45900  0.95178  0.43041  1.0000
  I   I196      1.0  0.93683  0.41617  0.54661  1.0000
  I   I197      1.0  0.58120  0.33132  0.63158  1.0000
  I   I198      1.0  0.65669  0.96583  0.15474  1.0000
  I   I199      1.0  0.95462  0.49819  0.64777  1.0000
  I   I200      1.0  0.69659  0.33956  0.15710  1.0000
  I   I201      1.0  0.27521  0.05168  0.69457  1.0000
  I   I202      1.0  0.62073  0.31371  0.87446  1.0000
  I   I203      1.0  0.13767  0.83509  0.92063  1.0000
  I   I204      1.0  0.93792  0.66882  0.09035  1.0000
  I   I205      1.0  0.81350  0.22262  0.71912  1.0000
  I   I206      1.0  0.82484  0.10086  0.66557  1.0000
  I   I207      1.0  0.78321  0.82137  0.60170  1.0000
  I   I208      1.0  0.11758  0.57545  0.62748  1.0000
  I   I209      1.0  0.32872  0.92812  0.50975  1.0000
  I   I210      1.0  0.52417  0.79235  0.59954  1.0000
  I   I211      1.0  0.51930  0.89324  0.22180  1.0000
  I   I212      1.0  0.32309  0.22829  0.64015  1.0000
  I   I213      1.0  0.11325  0.89748  0.90709  1.0000
  I   I214      1.0  0.63859  0.91894  0.45186  1.0000
  I   I215      1.0  0.31922  0.15664  0.43678  1.0000
  I   I216      1.0  0.25930  0.72645  0.66915  1.0000
  I   I217      1.0  0.51044  0.94284  0.13652  1.0000
  I   I218      1.0  0.31784  0.83900  0.94547  1.0000
  I   I219      1.0  0.73171  0.22991  0.99262  1.0000
  I   I220      1.0  0.55884  0.82362  0.05407  1.0000
  I   I221      1.0  0.03389  0.78850  0.38617  1.0000
  I   I222      1.0  0.38304  0.96221  0.81713  1.0000
  I   I223      1.0  0.16676  0.41502  0.95996  1.0000
  I   I224      1.0  0.12077  0.10666  0.65030  1.0000
  I   I225      1.0  0.19595  0.85373  0.56625  1.0000
  I   I226      1.0  0.51115  0.22606  0.25997  1.0000
  I   I227      1.0  0.70073  0.56951  0.68038  1.0000
  I   I228      1.0  0.15472  0.11827  0.06459  1.0000
  I   I229      1.0  0.06199  0.27107  0.59960  1.0000
  I   I230      1.0  0.33063  0.57730  0.22764  1.0000
  I   I231      1.0  0.10743  0.50705  0.19724  1.0000
  I   I232      1.0  0.83945  0.05841  0.74408  1.0000
  I   I233      1.0  0.35416  0.33975  0.48335  1.0000
  I   I234      1.0  0.11821  0.03445  0.55119  1.0000
  I   I235      1.0  0.30324  0.99908  0.12740  1.0000
  I   I236      1.0  0.15898  0.73037  0.21040  1.0000
  I   I237      1.0  0.19174  0.63321  0.76533  1.0000
  I   I238      1.0  0.75520  0.44668  0.66967  1.0000
  I   I239      1.0  0.48464  0.50751  0.78246  1.0000
  I   I240      1.0  0.85418  0.96101  0.33241  1.0000
  I   I241      1.0  0.05688  0.09538  0.49366  1.0000
  I   I242      1.0  0.01718  0.19470  0.33410  1.0000
  I   I243      1.0  0.44230  0.00048  0.50455  1.0000
  I   I244      1.0  0.69082  0.18382  0.80160  1.0000
  I   I245      1.0  0.38300  0.78253  0.47988  1.0000
  I   I246      1.0  0.61190  0.01632  0.05587  1.0000
  I   I247      1.0  0.96031  0.55336  0.53284  1.0000
  I   I248      1.0  0.28307  0.59631  0.36167  1.0000
  I   I249      1.0  0.39471  0.03956  0.63940  1.0000
  I   I250      1.0  0.57580  0.30029  0.93943  1.0000
  I   I251      1.0  0.18924  0.35541  0.51239  1.0000
  I   I252      1.0  0.03924  0.63448  0.02381  1.0000
  I   I253      1.0  0.77708  0.20153  0.49276  1.0000
  I   I254      1.0  0.85693  0.03256  0.66169  1.0000
  I   I255      1.0  0.73249  0.88217  0.55543  1.0000
  I   I256      1.0  0.76781  0.03004  0.79897  1.0000
  I   I257      1.0  0.26223  0.97817  0.53403  1.0000
  I   I258      1.0  0.57618  0.70457  0.73843  1.0000
  I   I259      1.0  0.54184  0.93038  0.29190  1.0000
  I   I260      1.0  0.56568  0.62838  0.59875  1.0000
  I   I261      1.0  0.27126  0.65985  0.30574  1.0000
  I   I262      1.0  0.58440  0.90626  0.46473  1.0000
  I   I263      1.0  0.30686  0.13555  0.34317  1.0000
  I   I264      1.0  0.32160  0.71473  0.60981  1.0000
  I   I265      1.0  0.48846  0.01324  0.22241  1.0000
  I   I266      1.0  0.14528  0.88429  0.03042  1.0000
  I   I267      1.0  0.77873  0.11390  0.03900  1.0000
  I   I268      1.0  0.61140  0.80658  0.04687  1.0000
  I   I269      1.0  0.10747  0.72960  0.54121  1.0000
  I   I270      1.0  0.44629  0.83519  0.84175  1.0000
  I   I271      1.0  0.15289  0.39907  0.05504  1.0000
  I   I272      1.0  0.10233  0.10974  0.75418  1.0000
  I   I273      1.0  0.24913  0.82589  0.50424  1.0000
  I   I274      1.0  0.45205  0.31908  0.15891  1.0000
  I   I275      1.0  0.66457  0.62725  0.64945  1.0000
  I   I276      1.0  0.17024  0.16232  0.04429  1.0000
  I   I277      1.0  0.45677  0.23281  0.33091  1.0000
  I   I278      1.0  0.37152  0.57718  0.30265  1.0000
  I   I279      1.0  0.18052  0.45111  0.31408  1.0000
  I   I280      1.0  0.55085  0.16888  0.12913  1.0000
  I   I281      1.0  0.38197  0.32193  0.39491  1.0000
  I   I282      1.0  0.14331  0.98726  0.64698  1.0000
  I   I283      1.0  0.26856  0.98366  0.21328  1.0000
  I   I284      1.0  0.18665  0.70247  0.11851  1.0000
  I   I285      1.0  0.27907  0.34072  0.35115  1.0000
  I   I286      1.0  0.70923  0.42061  0.69061  1.0000
  I   I287      1.0  0.41116  0.56839  0.69751  1.0000
  I   I288      1.0  0.80711  0.95355  0.32301  1.0000
  I   I289      1.0  0.00893  0.08738  0.57442  1.0000
  I   I290      1.0  0.15550  0.31203  0.01926  1.0000
  I   I291      1.0  0.04865  0.13423  0.34849  1.0000
  I   I292      1.0  0.66090  0.16202  0.72939  1.0000
  I   I293      1.0  0.35238  0.74578  0.42625  1.0000
  I   I294      1.0  0.80945  0.95524  0.07561  1.0000
  I   I295      1.0  0.91849  0.54635  0.58871  1.0000
  I   I296      1.0  0.74828  0.28937  0.14149  1.0000
  I   I297      1.0  0.30539  0.07922  0.80794  1.0000
  I   I298      1.0  0.61760  0.29878  0.74274  1.0000
  I   I299      1.0  0.13905  0.52377  0.58875  1.0000
  I   I300      1.0  0.98309  0.66499  0.96330  1.0000
  I   I301      1.0  0.73772  0.82950  0.54002  1.0000
  I   I302      1.0  0.82824  0.22893  0.55903  1.0000
  I   I303      1.0  0.03716  0.45670  0.72651  1.0000
  I   I304      1.0  0.55727  0.81372  0.66384  1.0000
  I   I305      1.0  0.07663  0.60491  0.53245  1.0000
  I   I306      1.0  0.40499  0.19866  0.87585  1.0000
  I   I307      1.0  0.53071  0.60654  0.66278  1.0000
  I   I308      1.0  0.35800  0.15638  0.69828  1.0000
  I   I309      1.0  0.27365  0.59613  0.52686  1.0000
  I   I310      1.0  0.32480  0.96661  0.25293  1.0000
  I   I311      1.0  0.34805  0.14322  0.29439  1.0000
  I   I312      1.0  0.38467  0.48820  0.62954  1.0000
  I   I313      1.0  0.74004  0.19429  0.89337  1.0000
  I   I314      1.0  0.47326  0.95891  0.23337  1.0000
  I   I315      1.0  0.30355  0.78546  0.95425  1.0000
  I   I316      1.0  0.41374  0.85576  0.72448  1.0000
  I   I317      1.0  0.58862  0.71359  0.07335  1.0000
  I   I318      1.0  0.12467  0.68290  0.45437  1.0000
  I   I319      1.0  0.58039  0.67700  0.35494  1.0000
  I   I320      1.0  0.97351  0.37127  0.49727  1.0000
  I   I321      1.0  0.17677  0.16253  0.72722  1.0000
  I   I322      1.0  0.41147  0.29805  0.11902  1.0000
  I   I323      1.0  0.70456  0.52207  0.63011  1.0000
  I   I324      1.0  0.17924  0.12888  0.24264  1.0000
  I   I325      1.0  0.10968  0.26725  0.54346  1.0000
  I   I326      1.0  0.43172  0.24761  0.94306  1.0000
  I   I327      1.0  0.25029  0.41130  0.32486  1.0000
  I   I328      1.0  0.01949  0.49566  0.81366  1.0000
  I   I329      1.0  0.30428  0.36895  0.41314  1.0000
  I   I330      1.0  0.19730  0.96880  0.56433  1.0000
  I   I331      1.0  0.21883  0.36710  0.33742  1.0000
  I   I332      1.0  0.65013  0.29748  0.62484  1.0000
  I   I333      1.0  0.70131  0.81653  0.08591  1.0000
  I   I334      1.0  0.86477  0.00306  0.40682  1.0000
  I   I335      1.0  0.79783  0.36335  0.29848  1.0000
  I   I336      1.0  0.46386  0.52878  0.68293  1.0000
  I   I337      1.0  0.07955  0.87633  0.67452  1.0000
  I   I338      1.0  0.17757  0.28834  0.13191  1.0000
  I   I339      1.0  0.99588  0.18053  0.22763  1.0000
  I   I340      1.0  0.98915  0.35592  0.34002  1.0000
  I   I341      1.0  0.24077  0.71137  0.19692  1.0000
  I   I342      1.0  0.83965  0.94029  0.97065  1.0000
  I   I343      1.0  0.01036  0.54811  0.51655  1.0000
  I   I344      1.0  0.71966  0.34527  0.04552  1.0000
  I   I345      1.0  0.34430  0.05086  0.71933  1.0000
  I   I346      1.0  0.31226  0.92823  0.21947  1.0000
  I   I347      1.0  0.60834  0.26313  0.83450  1.0000
  I   I348      1.0  0.05260  0.58043  0.10625  1.0000
  I   I349      1.0  0.79412  0.86087  0.50853  1.0000
  I   I350      1.0  0.83334  0.15716  0.53530  1.0000
  I   I351      1.0  0.89725  0.04277  0.72630  1.0000
  I   I352      1.0  0.52133  0.74081  0.78348  1.0000
  I   I353      1.0  0.76779  0.97296  0.82366  1.0000
  I   I354      1.0  0.37642  0.29132  0.98594  1.0000
  I   I355      1.0  0.56884  0.56709  0.58614  1.0000
  I   I356      1.0  0.50375  0.65090  0.72952  1.0000
  I   I357      1.0  0.16934  0.82077  0.02233  1.0000
  I   I358      1.0  0.31970  0.68760  0.72346  1.0000
  I   I359      1.0  0.27957  0.15810  0.24973  1.0000
  I   I360      1.0  0.42902  0.50198  0.69105  1.0000
  I   I361      1.0  0.78764  0.21479  0.93513  1.0000
  I   I362      1.0  0.57537  0.97394  0.22800  1.0000
  I   I363      1.0  0.18161  0.85905  0.09464  1.0000
  I   I364      1.0  0.37393  0.93251  0.91666  1.0000
  I   I365      1.0  0.59512  0.77347  0.95739  1.0000
  I   I366      1.0  0.03632  0.81043  0.49525  1.0000
  I   I367      1.0  0.57609  0.62836  0.28686  1.0000
  I   I368      1.0  0.00647  0.31367  0.42528  1.0000
  I   I369      1.0  0.06494  0.16054  0.68878  1.0000
  I   I370      1.0  0.41192  0.31275  0.25914  1.0000
  I   I371      1.0  0.67149  0.57582  0.54852  1.0000
  I   I372      1.0  0.13385  0.19886  0.12214  1.0000
  I   I373      1.0  0.08228  0.17614  0.50267  1.0000
  I   I374      1.0  0.37512  0.59277  0.19657  1.0000
  I   I375      1.0  0.22781  0.45633  0.21363  1.0000
  I   I376      1.0  0.57861  0.19079  0.22768  1.0000
  I   I377      1.0  0.33819  0.40540  0.40595  1.0000
  I   I378      1.0  0.15638  0.92341  0.61191  1.0000
  I   I379      1.0  0.13827  0.65462  0.83278  1.0000
  I   I380      1.0  0.36860  0.65256  0.03072  1.0000
  I   I381      1.0  0.16228  0.77996  0.15497  1.0000
  I   I382      1.0  0.81800  0.02176  0.26902  1.0000
  I   I383      1.0  0.69823  0.44865  0.58825  1.0000
  I   I384      1.0  0.44774  0.51259  0.57910  1.0000
