data_image0
_chemical_formula_structural       Ti96I384
_chemical_formula_sum              "Ti96 I384"
_cell_length_a       81.9575
_cell_length_b       81.4371
_cell_length_c       39.7771
_cell_angle_alpha    88.7757
_cell_angle_beta     88.7757
_cell_angle_gamma    62.1586

_space_group_name_H-M_alt    "P 1"
_space_group_IT_number       1

loop_
  _space_group_symop_operation_xyz
  'x, y, z'

loop_
  _atom_site_type_symbol
  _atom_site_label
  _atom_site_symmetry_multiplicity
  _atom_site_fract_x
  _atom_site_fract_y
  _atom_site_fract_z
  _atom_site_occupancy
  Ti  Ti1       1.0  0.85388  0.05127  0.75762  1.0000
  Ti  Ti2       1.0  0.67880  0.45254  0.60771  1.0000
  Ti  Ti3       1.0  0.02348  0.97705  0.38752  1.0000
  Ti  Ti4       1.0  0.35604  0.79156  0.78945  1.0000
  Ti  Ti5       1.0  0.85728  0.32832  0.58944  1.0000
  Ti  Ti6       1.0  0.14801  0.09620  0.00577  1.0000
  Ti  Ti7       1.0  0.44141  0.53854  0.56826  1.0000
  Ti  Ti8       1.0  0.23596  0.70759  0.51426  1.0000
  Ti  Ti9       1.0  0.09477  0.01937  0.52558  1.0000
  Ti  Ti10      1.0  0.80675  0.19355  0.05155  1.0000
  Ti  Ti11      1.0  0.38053  0.76216  0.50212  1.0000
  Ti  Ti12      1.0  0.41995  0.16084  0.92445  1.0000
  Ti  Ti13      1.0  0.41669  0.60354  0.29588  1.0000
  Ti  Ti14      1.0  0.37054  0.77357  0.87810  1.0000
  Ti  Ti15      1.0  0.52091  0.47857  0.90529  1.0000
  Ti  Ti16      1.0  0.88279  0.89530  0.77006  1.0000
  Ti  Ti17      1.0  0.70302  0.00039  0.59173  1.0000
  Ti  Ti18      1.0  0.28635  0.45084  0.52760  1.0000
  Ti  Ti19      1.0  0.53011  0.96632  0.29704  1.0000
  Ti  Ti20      1.0  0.66518  0.83315  0.79023  1.0000
  Ti  Ti21      1.0  0.16602  0.44240  0.49654  1.0000
  Ti  Ti22      1.0  0.24585  0.38612  0.67835  1.0000
  Ti  Ti23      1.0  0.37321  0.87705  0.30821  1.0000
  Ti  Ti24      1.0  0.99983  0.23274  0.91841  1.0000
  Ti  Ti25      1.0  0.10641  0.00852  0.90528  1.0000
  Ti  Ti26      1.0  0.32798  0.46236  0.70066  1.0000
  Ti  Ti27      1.0  0.13245  0.76204  0.24017  1.0000
  Ti  Ti28      1.0  0.21465  0.32331  0.04835  1.0000
  Ti  Ti29      1.0  0.60118  0.72278  0.38680  1.0000
  Ti  Ti30      1.0  0.70883  0.48347  0.31131  1.0000
  Ti  Ti31      1.0  0.86567  0.98628  0.98620  1.0000
  Ti  Ti32      1.0  0.85269  0.44652  0.96576  1.0000
  Ti  Ti33      1.0  0.93291  0.97745  0.59011  1.0000
  Ti  Ti34      1.0  0.56729  0.64933  0.88018  1.0000
  Ti  Ti35      1.0  0.96057  0.41511  0.09589  1.0000
  Ti  Ti36      1.0  0.54519  0.61618  0.56501  1.0000
  Ti  Ti37      1.0  0.24260  0.01626  0.28257  1.0000
  Ti  Ti38      1.0  0.65617  0.60462  0.64382  1.0000
  Ti  Ti39      1.0  0.80918  0.17049  0.96244  1.0000
  Ti  Ti40      1.0  0.92104  0.99547  0.24179  1.0000
  Ti  Ti41      1.0  0.52647  0.71312  0.07307  1.0000
  Ti  Ti42      1.0  0.16874  0.71113  0.87531  1.0000
  Ti  Ti43      1.0  0.34642  0.74175  0.54140  1.0000
  Ti  Ti44      1.0  0.34741  0.41678  0.13837  1.0000
  Ti  Ti45      1.0  0.70820  0.35525  0.32186  1.0000
  Ti  Ti46      1.0  0.09234  0.55585  0.31979  1.0000
  Ti  Ti47      1.0  0.06321  0.73441  0.37609  1.0000
  Ti  Ti48      1.0  0.20745  0.16764  0.92719  1.0000
  Ti  Ti49      1.0  0.42630  0.73755  0.12696  1.0000
  Ti  Ti50      1.0  0.21237  0.51453  0.77969  1.0000
  Ti  Ti51      1.0  0.37702  0.93433  0.31507  1.0000
  Ti  Ti52      1.0  0.14980  0.28928  0.37460  1.0000
  Ti  Ti53      1.0  0.62588  0.60152  0.27780  1.0000
  Ti  Ti54      1.0  0.98558  0.85130  0.12922  1.0000
  Ti  Ti55      1.0  0.91221  0.70558  0.67949  1.0000
  Ti  Ti56      1.0  0.64043  0.38923  0.70007  1.0000
  Ti  Ti57      1.0  0.10351  0.99237  0.57703  1.0000
  Ti  Ti58      1.0  0.92906  0.72995  0.98157  1.0000
  Ti  Ti59      1.0  0.85989  0.94400  0.78128  1.0000
  Ti  Ti60      1.0  0.52090  0.95668  0.38731  1.0000
  Ti  Ti61      1.0  0.59989  0.22229  0.67349  1.0000
  Ti  Ti62      1.0  0.45094  0.54737  0.23450  1.0000
  Ti  Ti63      1.0  0.24864  0.39448  0.19856  1.0000
  Ti  Ti64      1.0  0.28152  0.46068  0.43802  1.0000
  Ti  Ti65      1.0  0.46066  0.29648  0.90508  1.0000
  Ti  Ti66      1.0  0.93870  0.12529  0.22037  1.0000
  Ti  Ti67      1.0  0.81983  0.83851  0.62742  1.0000
  Ti  Ti68      1.0  0.34254  0.28450  0.03160  1.0000
  Ti  Ti69      1.0  0.34388  0.47765  0.77668  1.0000
  Ti  Ti70      1.0  0.39158  0.89759  0.86080  1.0000
  Ti  Ti71      1.0  0.71203  0.56871  0.00433  1.0000
  Ti  Ti72      1.0  0.33232  0.81733  0.28152  1.0000
  Ti  Ti73      1.0  0.08050  0.04014  0.16901  1.0000
  Ti  Ti74      1.0  0.07659  0.99089  0.95586  1.0000
  Ti  Ti75      1.0  0.38372  0.76031  0.08855  1.0000
  Ti  Ti76      1.0  0.88509  0.56034  0.65932  1.0000
  Ti  Ti77      1.0  0.49958  0.48431  0.84818  1.0000
  Ti  Ti78      1.0  0.72103  0.30060  0.15614  1.0000
  Ti  Ti79      1.0  0.15277  0.72791  0.66822  1.0000
  Ti  Ti80      1.0  0.87097  0.77486  0.40570  1.0000
  Ti  Ti81      1.0  0.55954  0.42546  0.73027  1.0000
  Ti  Ti82      1.0  0.21323  0.99172  0.78002  1.0000
  Ti  Ti83      1.0  0.75558  0.32697  0.37065  1.0000
  Ti  Ti84      1.0  0.54817  0.62094  0.64971  1.0000
  Ti  Ti85      1.0  0.27713  0.00203  0.37998  1.0000
  Ti  Ti86      1.0  0.45692  0.57565  0.59594  1.0000
  Ti  Ti87      1.0  0.99555  0.83575  0.80799  1.0000
  Ti  Ti88      1.0  0.75108  0.02131  0.23606  1.0000
  Ti  Ti89      1.0  0.67073  0.27835  0.99270  1.0000
  Ti  Ti90      1.0  0.67708  0.03119  0.52416  1.0000
  Ti  Ti91      1.0  0.75520  0.45330  0.33041  1.0000
  Ti  Ti92      1.0  0.87350  0.22753  0.87341  1.0000
  Ti  Ti93      1.0  0.94232  0.40321  0.59386  1.0000
  Ti  Ti94      1.0  0.19526  0.20476  0.90054  1.0000
  Ti  Ti95      1.0  0.49110  0.81748  0.54242  1.0000
  Ti  Ti96      1.0  0.74899  0.03704  0.80008  1.0000
  I   I1        1.0  0.03374  0.72884  0.37631  1.0000
  I   I2        1.0  0.36131  0.95779  0.27006  1.0000
  I   I3        1.0  0.39416  0.73085  0.13218  1.0000
  I   I4        1.0  0.63028  0.57119  0.24696  1.0000
  I   I5        1.0  0.14500  0.07459  0.96539  1.0000
  I   I6        1.0  0.95386  0.87056  0.16554  1.0000
  I   I7        1.0  0.27291  0.68890  0.52794  1.0000
  I   I8        1.0  0.61974  0.42264  0.72031  1.0000
  I   I9        1.0  0.08419  0.98918  0.52813  1.0000
  I   I10       1.0  0.83452  0.01664  0.01136  1.0000
  I   I11       1.0  0.38439  0.72545  0.50240  1.0000
  I   I12       1.0  0.83800  0.33351  0.64946  1.0000
  I   I13       1.0  0.38413  0.63108  0.28240  1.0000
  I   I14       1.0  0.24497  0.42655  0.19194  1.0000
  I   I15       1.0  0.49485  0.51851  0.87075  1.0000
  I   I16       1.0  0.95194  0.96588  0.26859  1.0000
  I   I17       1.0  0.84278  0.22651  0.85086  1.0000
  I   I18       1.0  0.31194  0.42682  0.56279  1.0000
  I   I19       1.0  0.24351  0.38818  0.13545  1.0000
  I   I20       1.0  0.41527  0.75372  0.53061  1.0000
  I   I21       1.0  0.22928  0.68950  0.55774  1.0000
  I   I22       1.0  0.57242  0.44749  0.74899  1.0000
  I   I23       1.0  0.77914  0.01185  0.19118  1.0000
  I   I24       1.0  0.41247  0.91043  0.87277  1.0000
  I   I25       1.0  0.12811  0.97977  0.94193  1.0000
  I   I26       1.0  0.45214  0.70775  0.10447  1.0000
  I   I27       1.0  0.98469  0.37749  0.09248  1.0000
  I   I28       1.0  0.20549  0.35644  0.03190  1.0000
  I   I29       1.0  0.70756  0.29153  0.10470  1.0000
  I   I30       1.0  0.73632  0.49080  0.28707  1.0000
  I   I31       1.0  0.83908  0.79766  0.38551  1.0000
  I   I32       1.0  0.54737  0.41780  0.79176  1.0000
  I   I33       1.0  0.17192  0.69400  0.66124  1.0000
  I   I34       1.0  0.97511  0.42113  0.04028  1.0000
  I   I35       1.0  0.58064  0.61690  0.68154  1.0000
  I   I36       1.0  0.56192  0.67760  0.84651  1.0000
  I   I37       1.0  0.24684  0.00481  0.41769  1.0000
  I   I38       1.0  0.78230  0.19709  0.09374  1.0000
  I   I39       1.0  0.29397  0.01998  0.35642  1.0000
  I   I40       1.0  0.35550  0.38425  0.12118  1.0000
  I   I41       1.0  0.21840  0.48645  0.82145  1.0000
  I   I42       1.0  0.91233  0.01354  0.29844  1.0000
  I   I43       1.0  0.95341  0.69842  0.93983  1.0000
  I   I44       1.0  0.71886  0.37514  0.35554  1.0000
  I   I45       1.0  0.75685  0.33672  0.30150  1.0000
  I   I46       1.0  0.49512  0.80951  0.60664  1.0000
  I   I47       1.0  0.05355  0.76545  0.40987  1.0000
  I   I48       1.0  0.17091  0.18667  0.92960  1.0000
  I   I49       1.0  0.40667  0.75687  0.17876  1.0000
  I   I50       1.0  0.68784  0.44729  0.67433  1.0000
  I   I51       1.0  0.37367  0.95940  0.36650  1.0000
  I   I52       1.0  0.89581  0.77242  0.45343  1.0000
  I   I53       1.0  0.63625  0.62734  0.24971  1.0000
  I   I54       1.0  0.01024  0.85805  0.15719  1.0000
  I   I55       1.0  0.45093  0.59845  0.64441  1.0000
  I   I56       1.0  0.16227  0.42536  0.55409  1.0000
  I   I57       1.0  0.49408  0.84772  0.53940  1.0000
  I   I58       1.0  0.83111  0.14096  0.93097  1.0000
  I   I59       1.0  0.83778  0.96630  0.73443  1.0000
  I   I60       1.0  0.51597  0.92910  0.41541  1.0000
  I   I61       1.0  0.46482  0.56222  0.18978  1.0000
  I   I62       1.0  0.41137  0.60322  0.36510  1.0000
  I   I63       1.0  0.63773  0.83900  0.75154  1.0000
  I   I64       1.0  0.91320  0.86859  0.73512  1.0000
  I   I65       1.0  0.92811  0.01873  0.20598  1.0000
  I   I66       1.0  0.20673  0.31206  0.99155  1.0000
  I   I67       1.0  0.51641  0.99637  0.35316  1.0000
  I   I68       1.0  0.69434  0.82368  0.74787  1.0000
  I   I69       1.0  0.29824  0.47162  0.66880  1.0000
  I   I70       1.0  0.37557  0.89254  0.91406  1.0000
  I   I71       1.0  0.37637  0.90279  0.26881  1.0000
  I   I72       1.0  0.33121  0.84105  0.23451  1.0000
  I   I73       1.0  0.10005  0.75941  0.21656  1.0000
  I   I74       1.0  0.30924  0.47803  0.75761  1.0000
  I   I75       1.0  0.36600  0.43988  0.72646  1.0000
  I   I76       1.0  0.49599  0.49623  0.78827  1.0000
  I   I77       1.0  0.51649  0.45164  0.87521  1.0000
  I   I78       1.0  0.85424  0.99742  0.91850  1.0000
  I   I79       1.0  0.89666  0.00507  0.58532  1.0000
  I   I80       1.0  0.83633  0.03801  0.71723  1.0000
  I   I81       1.0  0.86215  0.42475  0.91015  1.0000
  I   I82       1.0  0.24124  0.96303  0.75827  1.0000
  I   I83       1.0  0.67558  0.37072  0.34120  1.0000
  I   I84       1.0  0.52124  0.61823  0.61777  1.0000
  I   I85       1.0  0.29941  0.96944  0.40375  1.0000
  I   I86       1.0  0.19943  0.32918  0.10928  1.0000
  I   I87       1.0  0.78277  0.19927  0.99465  1.0000
  I   I88       1.0  0.83294  0.18521  0.98099  1.0000
  I   I89       1.0  0.59571  0.62128  0.85197  1.0000
  I   I90       1.0  0.23033  0.51128  0.72248  1.0000
  I   I91       1.0  0.77855  0.41878  0.30941  1.0000
  I   I92       1.0  0.87659  0.24602  0.81978  1.0000
  I   I93       1.0  0.36609  0.41371  0.19348  1.0000
  I   I94       1.0  0.20061  0.19963  0.96920  1.0000
  I   I95       1.0  0.10227  0.57829  0.35677  1.0000
  I   I96       1.0  0.25066  0.40154  0.62188  1.0000
  I   I97       1.0  0.99693  0.00244  0.34349  1.0000
  I   I98       1.0  0.82848  0.08140  0.73204  1.0000
  I   I99       1.0  0.64287  0.47192  0.59903  1.0000
  I   I100      1.0  0.36690  0.80064  0.92212  1.0000
  I   I101      1.0  0.75232  0.99743  0.28354  1.0000
  I   I102      1.0  0.84122  0.34030  0.52779  1.0000
  I   I103      1.0  0.42533  0.57977  0.56398  1.0000
  I   I104      1.0  0.90181  0.72483  0.62129  1.0000
  I   I105      1.0  0.50750  0.72941  0.13115  1.0000
  I   I106      1.0  0.45397  0.14236  0.92814  1.0000
  I   I107      1.0  0.79707  0.22847  0.04878  1.0000
  I   I108      1.0  0.41650  0.17344  0.86187  1.0000
  I   I109      1.0  0.55140  0.47169  0.92889  1.0000
  I   I110      1.0  0.42826  0.53918  0.20233  1.0000
  I   I111      1.0  0.66010  0.86222  0.81436  1.0000
  I   I112      1.0  0.26529  0.46038  0.37597  1.0000
  I   I113      1.0  0.42804  0.31589  0.89953  1.0000
  I   I114      1.0  0.69230  0.05134  0.49217  1.0000
  I   I115      1.0  0.84247  0.85137  0.64350  1.0000
  I   I116      1.0  0.78846  0.86229  0.60366  1.0000
  I   I117      1.0  0.36844  0.25306  0.01160  1.0000
  I   I118      1.0  0.78558  0.00560  0.79958  1.0000
  I   I119      1.0  0.83569  0.80439  0.61142  1.0000
  I   I120      1.0  0.05343  0.74572  0.31349  1.0000
  I   I121      1.0  0.06646  0.03011  0.21810  1.0000
  I   I122      1.0  0.09575  0.97685  0.89570  1.0000
  I   I123      1.0  0.40187  0.78214  0.09747  1.0000
  I   I124      1.0  0.68041  0.48213  0.33957  1.0000
  I   I125      1.0  0.91428  0.54697  0.62762  1.0000
  I   I126      1.0  0.69129  0.30490  0.19221  1.0000
  I   I127      1.0  0.92352  0.95163  0.56445  1.0000
  I   I128      1.0  0.38434  0.73732  0.89774  1.0000
  I   I129      1.0  0.36485  0.85632  0.34822  1.0000
  I   I130      1.0  0.56106  0.61928  0.51030  1.0000
  I   I131      1.0  0.22003  0.98334  0.84677  1.0000
  I   I132      1.0  0.92773  0.41843  0.09767  1.0000
  I   I133      1.0  0.78941  0.18229  0.90284  1.0000
  I   I134      1.0  0.66943  0.62942  0.63874  1.0000
  I   I135      1.0  0.94489  0.14729  0.17313  1.0000
  I   I136      1.0  0.19438  0.67567  0.88434  1.0000
  I   I137      1.0  0.12877  0.30678  0.43248  1.0000
  I   I138      1.0  0.64621  0.31094  0.01958  1.0000
  I   I139      1.0  0.76235  0.43209  0.38219  1.0000
  I   I140      1.0  0.90785  0.13554  0.25638  1.0000
  I   I141      1.0  0.91091  0.42273  0.55598  1.0000
  I   I142      1.0  0.21372  0.13419  0.95685  1.0000
  I   I143      1.0  0.01401  0.94681  0.39344  1.0000
  I   I144      1.0  0.23795  0.41334  0.71601  1.0000
  I   I145      1.0  0.84928  0.04503  0.81958  1.0000
  I   I146      1.0  0.67317  0.42081  0.61859  1.0000
  I   I147      1.0  0.04999  0.94809  0.35240  1.0000
  I   I148      1.0  0.14826  0.31830  0.33939  1.0000
  I   I149      1.0  0.87687  0.29472  0.56920  1.0000
  I   I150      1.0  0.16654  0.11119  0.97909  1.0000
  I   I151      1.0  0.91741  0.67228  0.69260  1.0000
  I   I152      1.0  0.21821  0.70679  0.46587  1.0000
  I   I153      1.0  0.11110  0.98707  0.64352  1.0000
  I   I154      1.0  0.35820  0.76646  0.56534  1.0000
  I   I155      1.0  0.37031  0.76659  0.43671  1.0000
  I   I156      1.0  0.55408  0.93932  0.35098  1.0000
  I   I157      1.0  0.53715  0.48267  0.83326  1.0000
  I   I158      1.0  0.21972  0.39564  0.21682  1.0000
  I   I159      1.0  0.58567  0.20646  0.71366  1.0000
  I   I160      1.0  0.30734  0.45451  0.38853  1.0000
  I   I161      1.0  0.64328  0.05527  0.52731  1.0000
  I   I162      1.0  0.27268  0.43942  0.47462  1.0000
  I   I163      1.0  0.51533  0.99780  0.26850  1.0000
  I   I164      1.0  0.07136  0.54494  0.35382  1.0000
  I   I165      1.0  0.20101  0.42388  0.47697  1.0000
  I   I166      1.0  0.71267  0.04877  0.81417  1.0000
  I   I167      1.0  0.53704  0.44756  0.68916  1.0000
  I   I168      1.0  0.02870  0.22177  0.87759  1.0000
  I   I169      1.0  0.09388  0.96206  0.98872  1.0000
  I   I170      1.0  0.04199  0.00586  0.95937  1.0000
  I   I171      1.0  0.14557  0.75975  0.30189  1.0000
  I   I172      1.0  0.87216  0.53958  0.65023  1.0000
  I   I173      1.0  0.62343  0.71322  0.33354  1.0000
  I   I174      1.0  0.68456  0.50687  0.26828  1.0000
  I   I175      1.0  0.89539  0.98726  0.21470  1.0000
  I   I176      1.0  0.87905  0.43039  0.01604  1.0000
  I   I177      1.0  0.15638  0.74098  0.60475  1.0000
  I   I178      1.0  0.20369  0.02534  0.75547  1.0000
  I   I179      1.0  0.70497  0.35659  0.25445  1.0000
  I   I180      1.0  0.21706  0.04990  0.27501  1.0000
  I   I181      1.0  0.40555  0.14153  0.95971  1.0000
  I   I182      1.0  0.42016  0.53168  0.60702  1.0000
  I   I183      1.0  0.00887  0.85691  0.79378  1.0000
  I   I184      1.0  0.74433  0.05245  0.26140  1.0000
  I   I185      1.0  0.65189  0.29172  0.93486  1.0000
  I   I186      1.0  0.16209  0.72473  0.93390  1.0000
  I   I187      1.0  0.86810  0.24574  0.93008  1.0000
  I   I188      1.0  0.35996  0.42993  0.08755  1.0000
  I   I189      1.0  0.99910  0.83230  0.87363  1.0000
  I   I190      1.0  0.11942  0.52276  0.30644  1.0000
  I   I191      1.0  0.73475  0.98561  0.61644  1.0000
  I   I192      1.0  0.03220  0.00091  0.41314  1.0000
  I   I193      1.0  0.74643  0.26531  0.16857  1.0000
  I   I194      1.0  0.68322  0.80908  0.83806  1.0000
  I   I195      1.0  0.99991  0.99250  0.44171  1.0000
  I   I196      1.0  0.39193  0.77439  0.82171  1.0000
  I   I197      1.0  0.91652  0.70612  0.00664  1.0000
  I   I198      1.0  0.11276  0.12255  0.00764  1.0000
  I   I199      1.0  0.84147  0.48187  0.98535  1.0000
  I   I200      1.0  0.62864  0.38467  0.64237  1.0000
  I   I201      1.0  0.12727  0.00877  0.56201  1.0000
  I   I202      1.0  0.84736  0.91546  0.79228  1.0000
  I   I203      1.0  0.34193  0.51032  0.77915  1.0000
  I   I204      1.0  0.41357  0.19269  0.93919  1.0000
  I   I205      1.0  0.43342  0.62209  0.29973  1.0000
  I   I206      1.0  0.36246  0.81971  0.76465  1.0000
  I   I207      1.0  0.49817  0.48758  0.95986  1.0000
  I   I208      1.0  0.90064  0.91753  0.78219  1.0000
  I   I209      1.0  0.66947  0.02662  0.59308  1.0000
  I   I210      1.0  0.15672  0.71948  0.73496  1.0000
  I   I211      1.0  0.40153  0.86597  0.83361  1.0000
  I   I212      1.0  0.25989  0.39065  0.26178  1.0000
  I   I213      1.0  0.38495  0.45622  0.78773  1.0000
  I   I214      1.0  0.27336  0.35701  0.69514  1.0000
  I   I215      1.0  0.41400  0.92156  0.31389  1.0000
  I   I216      1.0  0.96306  0.41082  0.55117  1.0000
  I   I217      1.0  0.06888  0.02605  0.88555  1.0000
  I   I218      1.0  0.37261  0.76732  0.02241  1.0000
  I   I219      1.0  0.09075  0.01072  0.13275  1.0000
  I   I220      1.0  0.46753  0.49066  0.87079  1.0000
  I   I221      1.0  0.62064  0.70738  0.43831  1.0000
  I   I222      1.0  0.89571  0.55860  0.72400  1.0000
  I   I223      1.0  0.87312  0.95217  0.01663  1.0000
  I   I224      1.0  0.81970  0.44968  0.96748  1.0000
  I   I225      1.0  0.96809  0.96852  0.58323  1.0000
  I   I226      1.0  0.21114  0.73862  0.54802  1.0000
  I   I227      1.0  0.97786  0.41700  0.14876  1.0000
  I   I228      1.0  0.54316  0.64634  0.60486  1.0000
  I   I229      1.0  0.89939  0.75948  0.97874  1.0000
  I   I230      1.0  0.62381  0.60224  0.65102  1.0000
  I   I231      1.0  0.84016  0.17495  0.07841  1.0000
  I   I232      1.0  0.33427  0.79055  0.89962  1.0000
  I   I233      1.0  0.53896  0.73093  0.02555  1.0000
  I   I234      1.0  0.69752  0.97212  0.61287  1.0000
  I   I235      1.0  0.34169  0.73963  0.60819  1.0000
  I   I236      1.0  0.95603  0.36459  0.58878  1.0000
  I   I237      1.0  0.72576  0.47703  0.37666  1.0000
  I   I238      1.0  0.50918  0.79633  0.49287  1.0000
  I   I239      1.0  0.74843  0.04624  0.73880  1.0000
  I   I240      1.0  0.21271  0.22133  0.87054  1.0000
  I   I241      1.0  0.87076  0.06163  0.70608  1.0000
  I   I242      1.0  0.69781  0.44316  0.55138  1.0000
  I   I243      1.0  0.35212  0.28281  0.09248  1.0000
  I   I244      1.0  0.71799  0.03352  0.20771  1.0000
  I   I245      1.0  0.59465  0.61736  0.31478  1.0000
  I   I246      1.0  0.16170  0.08669  0.06429  1.0000
  I   I247      1.0  0.45462  0.54832  0.63690  1.0000
  I   I248      1.0  0.15316  0.43471  0.44165  1.0000
  I   I249      1.0  0.13049  0.95663  0.55756  1.0000
  I   I250      1.0  0.88411  0.95638  0.76748  1.0000
  I   I251      1.0  0.37664  0.79322  0.49098  1.0000
  I   I252      1.0  0.53639  0.94545  0.24197  1.0000
  I   I253      1.0  0.48348  0.51915  0.25410  1.0000
  I   I254      1.0  0.33788  0.81167  0.84177  1.0000
  I   I255      1.0  0.57473  0.25265  0.64373  1.0000
  I   I256      1.0  0.48021  0.31548  0.89225  1.0000
  I   I257      1.0  0.24822  0.03074  0.34086  1.0000
  I   I258      1.0  0.28083  0.47782  0.56634  1.0000
  I   I259      1.0  0.80241  0.83940  0.68227  1.0000
  I   I260      1.0  0.06552  0.57573  0.26977  1.0000
  I   I261      1.0  0.15744  0.47799  0.52051  1.0000
  I   I262      1.0  0.21930  0.37242  0.67391  1.0000
  I   I263      1.0  0.70227  0.55605  0.95436  1.0000
  I   I264      1.0  0.54251  0.58535  0.54256  1.0000
  I   I265      1.0  0.11393  0.03383  0.92690  1.0000
  I   I266      1.0  0.33975  0.47230  0.83713  1.0000
  I   I267      1.0  0.11270  0.04106  0.18236  1.0000
  I   I268      1.0  0.96149  0.10516  0.26920  1.0000
  I   I269      1.0  0.72677  0.32900  0.14211  1.0000
  I   I270      1.0  0.24987  0.30144  0.04583  1.0000
  I   I271      1.0  0.89520  0.98932  0.98164  1.0000
  I   I272      1.0  0.56966  0.38974  0.71187  1.0000
  I   I273      1.0  0.93962  0.96670  0.65442  1.0000
  I   I274      1.0  0.55274  0.68056  0.04599  1.0000
  I   I275      1.0  0.14892  0.76602  0.18906  1.0000
  I   I276      1.0  0.53771  0.60342  0.69849  1.0000
  I   I277      1.0  0.17985  0.99528  0.76785  1.0000
  I   I278      1.0  0.67362  0.57079  0.61108  1.0000
  I   I279      1.0  0.31914  0.44881  0.14600  1.0000
  I   I280      1.0  0.18113  0.26543  0.39615  1.0000
  I   I281      1.0  0.49254  0.71347  0.06242  1.0000
  I   I282      1.0  0.14177  0.70869  0.85117  1.0000
  I   I283      1.0  0.33629  0.75867  0.47796  1.0000
  I   I284      1.0  0.01141  0.20225  0.95855  1.0000
  I   I285      1.0  0.96470  0.86394  0.81700  1.0000
  I   I286      1.0  0.45927  0.81374  0.54627  1.0000
  I   I287      1.0  0.32532  0.83464  0.33850  1.0000
  I   I288      1.0  0.24461  0.15842  0.92086  1.0000
  I   I289      1.0  0.33710  0.71566  0.51383  1.0000
  I   I290      1.0  0.69527  0.01521  0.65907  1.0000
  I   I291      1.0  0.36707  0.91174  0.35008  1.0000
  I   I292      1.0  0.14053  0.27114  0.33634  1.0000
  I   I293      1.0  0.63590  0.57391  0.33226  1.0000
  I   I294      1.0  0.99375  0.81851  0.11459  1.0000
  I   I295      1.0  0.46474  0.59114  0.53863  1.0000
  I   I296      1.0  0.67674  0.37064  0.68186  1.0000
  I   I297      1.0  0.06088  0.04302  0.50579  1.0000
  I   I298      1.0  0.95837  0.73586  0.01497  1.0000
  I   I299      1.0  0.87953  0.86844  0.80196  1.0000
  I   I300      1.0  0.92587  0.43151  0.64222  1.0000
  I   I301      1.0  0.62732  0.20651  0.62071  1.0000
  I   I302      1.0  0.45104  0.56027  0.29576  1.0000
  I   I303      1.0  0.47702  0.27046  0.86275  1.0000
  I   I304      1.0  0.25569  0.49193  0.46129  1.0000
  I   I305      1.0  0.86894  0.91189  0.71172  1.0000
  I   I306      1.0  0.43128  0.54606  0.50315  1.0000
  I   I307      1.0  0.23287  0.98835  0.28940  1.0000
  I   I308      1.0  0.17825  0.53369  0.75729  1.0000
  I   I309      1.0  0.25045  0.72828  0.47643  1.0000
  I   I310      1.0  0.41710  0.73843  0.05395  1.0000
  I   I311      1.0  0.69179  0.58225  0.06106  1.0000
  I   I312      1.0  0.09723  0.70772  0.37365  1.0000
  I   I313      1.0  0.06515  0.06197  0.11822  1.0000
  I   I314      1.0  0.12588  0.00148  0.84602  1.0000
  I   I315      1.0  0.35098  0.78230  0.12523  1.0000
  I   I316      1.0  0.85813  0.59577  0.66596  1.0000
  I   I317      1.0  0.93717  0.09896  0.19080  1.0000
  I   I318      1.0  0.58569  0.75721  0.38091  1.0000
  I   I319      1.0  0.11963  0.72877  0.66602  1.0000
  I   I320      1.0  0.35652  0.75971  0.82464  1.0000
  I   I321      1.0  0.89245  0.72710  0.72020  1.0000
  I   I322      1.0  0.58207  0.65879  0.93424  1.0000
  I   I323      1.0  0.72477  0.32341  0.36034  1.0000
  I   I324      1.0  0.57740  0.59767  0.59325  1.0000
  I   I325      1.0  0.26214  0.01291  0.22662  1.0000
  I   I326      1.0  0.46965  0.50759  0.55383  1.0000
  I   I327      1.0  0.77250  0.29994  0.41523  1.0000
  I   I328      1.0  0.81227  0.15810  0.02851  1.0000
  I   I329      1.0  0.66176  0.25258  0.02478  1.0000
  I   I330      1.0  0.67897  0.00590  0.47491  1.0000
  I   I331      1.0  0.99521  0.80175  0.77936  1.0000
  I   I332      1.0  0.71576  0.00805  0.53166  1.0000
  I   I333      1.0  0.53490  0.65507  0.89133  1.0000
  I   I334      1.0  0.16282  0.23089  0.89991  1.0000
  I   I335      1.0  0.35598  0.29739  0.99079  1.0000
  I   I336      1.0  0.75740  0.04998  0.84744  1.0000
  I   I337      1.0  0.45424  0.74524  0.14411  1.0000
  I   I338      1.0  0.21368  0.53754  0.82157  1.0000
  I   I339      1.0  0.33713  0.90032  0.29781  1.0000
  I   I340      1.0  0.87192  0.74054  0.42416  1.0000
  I   I341      1.0  0.97641  0.26412  0.94672  1.0000
  I   I342      1.0  0.98719  0.86182  0.06828  1.0000
  I   I343      1.0  0.94710  0.69513  0.69466  1.0000
  I   I344      1.0  0.63561  0.36588  0.73151  1.0000
  I   I345      1.0  0.07325  0.03380  0.58984  1.0000
  I   I346      1.0  0.36574  0.91683  0.81701  1.0000
  I   I347      1.0  0.84036  0.95687  0.83405  1.0000
  I   I348      1.0  0.50752  0.95450  0.32374  1.0000
  I   I349      1.0  0.60210  0.24753  0.70899  1.0000
  I   I350      1.0  0.41653  0.58508  0.24282  1.0000
  I   I351      1.0  0.33142  0.79308  0.75205  1.0000
  I   I352      1.0  0.30918  0.46019  0.49082  1.0000
  I   I353      1.0  0.46840  0.27938  0.95973  1.0000
  I   I354      1.0  0.48818  0.54569  0.57668  1.0000
  I   I355      1.0  0.56143  0.96974  0.29041  1.0000
  I   I356      1.0  0.30816  0.29059  0.02692  1.0000
  I   I357      1.0  0.33845  0.42854  0.66021  1.0000
  I   I358      1.0  0.88103  0.33849  0.60453  1.0000
  I   I359      1.0  0.70094  0.60079  0.96642  1.0000
  I   I360      1.0  0.32099  0.79260  0.31077  1.0000
  I   I361      1.0  0.10475  0.79445  0.25694  1.0000
  I   I362      1.0  0.07977  0.01720  0.98154  1.0000
  I   I363      1.0  0.34589  0.48362  0.69192  1.0000
  I   I364      1.0  0.73077  0.44928  0.28847  1.0000
  I   I365      1.0  0.59895  0.61362  0.22417  1.0000
  I   I366      1.0  0.57389  0.71499  0.37227  1.0000
  I   I367      1.0  0.17286  0.74334  0.68411  1.0000
  I   I368      1.0  0.88897  0.77402  0.35209  1.0000
  I   I369      1.0  0.39291  0.84658  0.27276  1.0000
  I   I370      1.0  0.12200  0.00732  0.47967  1.0000
  I   I371      1.0  0.79268  0.30751  0.34734  1.0000
  I   I372      1.0  0.97220  0.22869  0.89437  1.0000
  I   I373      1.0  0.28009  0.98818  0.31584  1.0000
  I   I374      1.0  0.64161  0.61366  0.71128  1.0000
  I   I375      1.0  0.75731  0.34791  0.42282  1.0000
  I   I376      1.0  0.73840  0.53841  0.02422  1.0000
  I   I377      1.0  0.70037  0.28233  0.99640  1.0000
  I   I378      1.0  0.19143  0.72222  0.85423  1.0000
  I   I379      1.0  0.78471  0.45588  0.34366  1.0000
  I   I380      1.0  0.89929  0.19948  0.89920  1.0000
  I   I381      1.0  0.52305  0.97026  0.44320  1.0000
  I   I382      1.0  0.20181  0.17694  0.84990  1.0000
  I   I383      1.0  0.30901  0.76390  0.55895  1.0000
  I   I384      1.0  0.36632  0.79281  0.29004  1.0000
