data_image0
_chemical_formula_structural       Ti96I384
_chemical_formula_sum              "Ti96 I384"
_cell_length_a       63.9032
_cell_length_b       63.6241
_cell_length_c       31.1184
_cell_angle_alpha    88.7757
_cell_angle_beta     88.7757
_cell_angle_gamma    62.1586

_space_group_name_H-M_alt    "P 1"
_space_group_IT_number       1

loop_
  _space_group_symop_operation_xyz
  'x, y, z'

loop_
  _atom_site_type_symbol
  _atom_site_label
  _atom_site_symmetry_multiplicity
  _atom_site_fract_x
  _atom_site_fract_y
  _atom_site_fract_z
  _atom_site_occupancy
  Ti  Ti1       1.0  0.46905  0.95052  0.61755  1.0000
  Ti  Ti2       1.0  0.48290  0.14942  0.53098  1.0000
  Ti  Ti3       1.0  0.84831  0.74082  0.05025  1.0000
  Ti  Ti4       1.0  0.86794  0.22599  0.10416  1.0000
  Ti  Ti5       1.0  0.29557  0.79408  0.85166  1.0000
  Ti  Ti6       1.0  0.27441  0.19290  0.33667  1.0000
  Ti  Ti7       1.0  0.96361  0.89720  0.94418  1.0000
  Ti  Ti8       1.0  0.46552  0.48183  0.84745  1.0000
  Ti  Ti9       1.0  0.37159  0.86442  0.95024  1.0000
  Ti  Ti10      1.0  0.83952  0.69130  0.55871  1.0000
  Ti  Ti11      1.0  0.47890  0.26774  0.63073  1.0000
  Ti  Ti12      1.0  0.12564  0.61151  0.44448  1.0000
  Ti  Ti13      1.0  0.23202  0.44761  0.40120  1.0000
  Ti  Ti14      1.0  0.09420  0.96320  0.64902  1.0000
  Ti  Ti15      1.0  0.50726  0.00482  0.21148  1.0000
  Ti  Ti16      1.0  0.64869  0.88648  0.65834  1.0000
  Ti  Ti17      1.0  0.33361  0.22266  0.00073  1.0000
  Ti  Ti18      1.0  0.99330  0.70725  0.83267  1.0000
  Ti  Ti19      1.0  0.90027  0.82613  0.50579  1.0000
  Ti  Ti20      1.0  0.26837  0.05755  0.02234  1.0000
  Ti  Ti21      1.0  0.91038  0.16185  0.35792  1.0000
  Ti  Ti22      1.0  0.61069  0.46203  0.85779  1.0000
  Ti  Ti23      1.0  0.75866  0.89584  0.94354  1.0000
  Ti  Ti24      1.0  0.07706  0.69290  0.93461  1.0000
  Ti  Ti25      1.0  0.97970  0.48219  0.49539  1.0000
  Ti  Ti26      1.0  0.08368  0.12558  0.14854  1.0000
  Ti  Ti27      1.0  0.16425  0.55301  0.20602  1.0000
  Ti  Ti28      1.0  0.55524  0.43704  0.23041  1.0000
  Ti  Ti29      1.0  0.03473  0.90063  0.28753  1.0000
  Ti  Ti30      1.0  0.84197  0.34913  0.18839  1.0000
  Ti  Ti31      1.0  0.86187  0.33706  0.54603  1.0000
  Ti  Ti32      1.0  0.65554  0.14484  0.26402  1.0000
  Ti  Ti33      1.0  0.37809  0.91559  0.32718  1.0000
  Ti  Ti34      1.0  0.51849  0.71213  0.81268  1.0000
  Ti  Ti35      1.0  0.82834  0.54528  0.76997  1.0000
  Ti  Ti36      1.0  0.97637  0.51809  0.15757  1.0000
  Ti  Ti37      1.0  0.06998  0.21581  0.37157  1.0000
  Ti  Ti38      1.0  0.38210  0.46706  0.24613  1.0000
  Ti  Ti39      1.0  0.68288  0.24720  0.29703  1.0000
  Ti  Ti40      1.0  0.58893  0.80782  0.23553  1.0000
  Ti  Ti41      1.0  0.54017  0.74215  0.53737  1.0000
  Ti  Ti42      1.0  0.59431  0.23049  0.68912  1.0000
  Ti  Ti43      1.0  0.54373  0.08659  0.80566  1.0000
  Ti  Ti44      1.0  0.72574  0.59655  0.12189  1.0000
  Ti  Ti45      1.0  0.40317  0.61111  0.10474  1.0000
  Ti  Ti46      1.0  0.14197  0.31165  0.79715  1.0000
  Ti  Ti47      1.0  0.09125  0.22100  0.00958  1.0000
  Ti  Ti48      1.0  0.39844  0.62665  0.66509  1.0000
  Ti  Ti49      1.0  0.41246  0.97178  0.71514  1.0000
  Ti  Ti50      1.0  0.28816  0.15793  0.68964  1.0000
  Ti  Ti51      1.0  0.50374  0.09860  0.51490  1.0000
  Ti  Ti52      1.0  0.80651  0.24141  0.14699  1.0000
  Ti  Ti53      1.0  0.24770  0.69012  0.33426  1.0000
  Ti  Ti54      1.0  0.27805  0.16412  0.44672  1.0000
  Ti  Ti55      1.0  0.98762  0.87956  0.05204  1.0000
  Ti  Ti56      1.0  0.45802  0.42735  0.94781  1.0000
  Ti  Ti57      1.0  0.35975  0.90312  0.87684  1.0000
  Ti  Ti58      1.0  0.51852  0.13281  0.89469  1.0000
  Ti  Ti59      1.0  0.81168  0.68872  0.47323  1.0000
  Ti  Ti60      1.0  0.10370  0.66854  0.54530  1.0000
  Ti  Ti61      1.0  0.51910  0.05398  0.17737  1.0000
  Ti  Ti62      1.0  0.16110  0.46992  0.35090  1.0000
  Ti  Ti63      1.0  0.10828  0.99787  0.73559  1.0000
  Ti  Ti64      1.0  0.96832  0.76627  0.76533  1.0000
  Ti  Ti65      1.0  0.16278  0.51773  0.62048  1.0000
  Ti  Ti66      1.0  0.39077  0.41540  0.49283  1.0000
  Ti  Ti67      1.0  0.87712  0.81113  0.40720  1.0000
  Ti  Ti68      1.0  0.07871  0.18694  0.67171  1.0000
  Ti  Ti69      1.0  0.94062  0.16793  0.45328  1.0000
  Ti  Ti70      1.0  0.58314  0.45641  0.93582  1.0000
  Ti  Ti71      1.0  0.77577  0.83951  0.99663  1.0000
  Ti  Ti72      1.0  0.03308  0.03377  0.13598  1.0000
  Ti  Ti73      1.0  0.21511  0.54532  0.16927  1.0000
  Ti  Ti74      1.0  0.04064  0.44530  0.54347  1.0000
  Ti  Ti75      1.0  0.16162  0.05760  0.15849  1.0000
  Ti  Ti76      1.0  0.83581  0.39510  0.12301  1.0000
  Ti  Ti77      1.0  0.60738  0.41306  0.27595  1.0000
  Ti  Ti78      1.0  0.99222  0.94704  0.27310  1.0000
  Ti  Ti79      1.0  0.18342  0.77859  0.55541  1.0000
  Ti  Ti80      1.0  0.90839  0.37648  0.48175  1.0000
  Ti  Ti81      1.0  0.63577  0.16754  0.14681  1.0000
  Ti  Ti82      1.0  0.51582  0.66157  0.85713  1.0000
  Ti  Ti83      1.0  0.83451  0.49074  0.80282  1.0000
  Ti  Ti84      1.0  0.02057  0.53844  0.12041  1.0000
  Ti  Ti85      1.0  0.02009  0.23648  0.27383  1.0000
  Ti  Ti86      1.0  0.39354  0.44987  0.38368  1.0000
  Ti  Ti87      1.0  0.68746  0.25561  0.44104  1.0000
  Ti  Ti88      1.0  0.68643  0.75610  0.19019  1.0000
  Ti  Ti89      1.0  0.57936  0.69632  0.44534  1.0000
  Ti  Ti90      1.0  0.58245  0.18609  0.66951  1.0000
  Ti  Ti91      1.0  0.44016  0.60691  0.02111  1.0000
  Ti  Ti92      1.0  0.87145  0.09524  0.58919  1.0000
  Ti  Ti93      1.0  0.78695  0.61282  0.10247  1.0000
  Ti  Ti94      1.0  0.42648  0.65131  0.60606  1.0000
  Ti  Ti95      1.0  0.17954  0.32972  0.87239  1.0000
  Ti  Ti96      1.0  0.14659  0.20060  0.97183  1.0000
  I   I1        1.0  0.14773  0.18910  0.04625  1.0000
  I   I2        1.0  0.45788  0.12487  0.47919  1.0000
  I   I3        1.0  0.38507  0.00475  0.76563  1.0000
  I   I4        1.0  0.23815  0.65715  0.30828  1.0000
  I   I5        1.0  0.25586  0.23902  0.33944  1.0000
  I   I6        1.0  0.23893  0.19159  0.39528  1.0000
  I   I7        1.0  0.50064  0.41415  0.91622  1.0000
  I   I8        1.0  0.44660  0.47760  0.93987  1.0000
  I   I9        1.0  0.31906  0.93691  0.89108  1.0000
  I   I10       1.0  0.80144  0.66144  0.53308  1.0000
  I   I11       1.0  0.50099  0.23268  0.57472  1.0000
  I   I12       1.0  0.32644  0.79664  0.80036  1.0000
  I   I13       1.0  0.19106  0.43949  0.42038  1.0000
  I   I14       1.0  0.11546  0.98442  0.81912  1.0000
  I   I15       1.0  0.48757  0.02954  0.14130  1.0000
  I   I16       1.0  0.60905  0.89265  0.62965  1.0000
  I   I17       1.0  0.40015  0.43426  0.55819  1.0000
  I   I18       1.0  0.98651  0.79456  0.75145  1.0000
  I   I19       1.0  0.30422  0.01922  0.05424  1.0000
  I   I20       1.0  0.43346  0.29408  0.61292  1.0000
  I   I21       1.0  0.88603  0.18989  0.29531  1.0000
  I   I22       1.0  0.73498  0.90699  0.86873  1.0000
  I   I23       1.0  0.78714  0.85263  0.91129  1.0000
  I   I24       1.0  0.59435  0.42026  0.88367  1.0000
  I   I25       1.0  0.08303  0.43473  0.52199  1.0000
  I   I26       1.0  0.13573  0.10559  0.14932  1.0000
  I   I27       1.0  0.12283  0.56847  0.24382  1.0000
  I   I28       1.0  0.64590  0.39487  0.22852  1.0000
  I   I29       1.0  0.94770  0.97627  0.27904  1.0000
  I   I30       1.0  0.83826  0.40816  0.04433  1.0000
  I   I31       1.0  0.90086  0.34460  0.43525  1.0000
  I   I32       1.0  0.65864  0.15152  0.07347  1.0000
  I   I33       1.0  0.17531  0.77649  0.47946  1.0000
  I   I34       1.0  0.80296  0.53434  0.72766  1.0000
  I   I35       1.0  0.03957  0.56408  0.14728  1.0000
  I   I36       1.0  0.55226  0.72593  0.81528  1.0000
  I   I37       1.0  0.06972  0.24868  0.43310  1.0000
  I   I38       1.0  0.71847  0.21553  0.25625  1.0000
  I   I39       1.0  0.01749  0.22519  0.35648  1.0000
  I   I40       1.0  0.59886  0.70631  0.37954  1.0000
  I   I41       1.0  0.61243  0.14583  0.70335  1.0000
  I   I42       1.0  0.59445  0.83924  0.19363  1.0000
  I   I43       1.0  0.57558  0.04091  0.79452  1.0000
  I   I44       1.0  0.80973  0.60931  0.16860  1.0000
  I   I45       1.0  0.47474  0.57872  0.97375  1.0000
  I   I46       1.0  0.14528  0.27457  0.75268  1.0000
  I   I47       1.0  0.11352  0.25024  0.97766  1.0000
  I   I48       1.0  0.44022  0.60037  0.62614  1.0000
  I   I49       1.0  0.38873  0.96641  0.65499  1.0000
  I   I50       1.0  0.46734  0.19629  0.49041  1.0000
  I   I51       1.0  0.43993  0.17363  0.57102  1.0000
  I   I52       1.0  0.90959  0.19682  0.07010  1.0000
  I   I53       1.0  0.20441  0.72635  0.31447  1.0000
  I   I54       1.0  0.31434  0.14282  0.50234  1.0000
  I   I55       1.0  0.00922  0.88401  0.92198  1.0000
  I   I56       1.0  0.46557  0.43522  0.02558  1.0000
  I   I57       1.0  0.40932  0.84178  0.88303  1.0000
  I   I58       1.0  0.85555  0.72180  0.59158  1.0000
  I   I59       1.0  0.81675  0.69938  0.63116  1.0000
  I   I60       1.0  0.12297  0.61044  0.53398  1.0000
  I   I61       1.0  0.17701  0.43081  0.30947  1.0000
  I   I62       1.0  0.12415  0.47540  0.39327  1.0000
  I   I63       1.0  0.09331  0.92894  0.69333  1.0000
  I   I64       1.0  0.67795  0.84139  0.67087  1.0000
  I   I65       1.0  0.18060  0.49626  0.54974  1.0000
  I   I66       1.0  0.42181  0.37460  0.50785  1.0000
  I   I67       1.0  0.89052  0.77301  0.34881  1.0000
  I   I68       1.0  0.25768  0.05907  0.93926  1.0000
  I   I69       1.0  0.88176  0.14827  0.39853  1.0000
  I   I70       1.0  0.61238  0.42635  0.99551  1.0000
  I   I71       1.0  0.72882  0.88567  0.98051  1.0000
  I   I72       1.0  0.05334  0.00297  0.20060  1.0000
  I   I73       1.0  0.24226  0.49485  0.17777  1.0000
  I   I74       1.0  0.03749  0.14142  0.15705  1.0000
  I   I75       1.0  0.20506  0.04663  0.17727  1.0000
  I   I76       1.0  0.59199  0.39450  0.20106  1.0000
  I   I77       1.0  0.63337  0.38710  0.33424  1.0000
  I   I78       1.0  0.98126  0.91240  0.30711  1.0000
  I   I79       1.0  0.33413  0.93786  0.34693  1.0000
  I   I80       1.0  0.86380  0.41912  0.50634  1.0000
  I   I81       1.0  0.67414  0.15519  0.33370  1.0000
  I   I82       1.0  0.47655  0.74107  0.84936  1.0000
  I   I83       1.0  0.81821  0.46463  0.76716  1.0000
  I   I84       1.0  0.99944  0.49265  0.23256  1.0000
  I   I85       1.0  0.10230  0.20614  0.32326  1.0000
  I   I86       1.0  0.40045  0.42652  0.29930  1.0000
  I   I87       1.0  0.67676  0.28571  0.25344  1.0000
  I   I88       1.0  0.59369  0.76743  0.28117  1.0000
  I   I89       1.0  0.54117  0.74328  0.43813  1.0000
  I   I90       1.0  0.61472  0.19493  0.62148  1.0000
  I   I91       1.0  0.45260  0.59007  0.10802  1.0000
  I   I92       1.0  0.91242  0.07146  0.54657  1.0000
  I   I93       1.0  0.67888  0.62248  0.12907  1.0000
  I   I94       1.0  0.39640  0.63761  0.55860  1.0000
  I   I95       1.0  0.21879  0.33274  0.86933  1.0000
  I   I96       1.0  0.17542  0.15756  0.94220  1.0000
  I   I97       1.0  0.83799  0.76001  0.12976  1.0000
  I   I98       1.0  0.44022  0.99017  0.66739  1.0000
  I   I99       1.0  0.50896  0.07434  0.43774  1.0000
  I   I100      1.0  0.81155  0.23969  0.23514  1.0000
  I   I101      1.0  0.84820  0.19728  0.16143  1.0000
  I   I102      1.0  0.28005  0.76965  0.80122  1.0000
  I   I103      1.0  0.94830  0.87145  0.89440  1.0000
  I   I104      1.0  0.96948  0.88869  0.12811  1.0000
  I   I105      1.0  0.34979  0.89771  0.80102  1.0000
  I   I106      1.0  0.09809  0.70712  0.50534  1.0000
  I   I107      1.0  0.87672  0.65385  0.56554  1.0000
  I   I108      1.0  0.17463  0.60119  0.45557  1.0000
  I   I109      1.0  0.52307  0.03028  0.25828  1.0000
  I   I110      1.0  0.26006  0.40860  0.43805  1.0000
  I   I111      1.0  0.13043  0.93913  0.59623  1.0000
  I   I112      1.0  0.03960  0.69678  0.85122  1.0000
  I   I113      1.0  0.12121  0.55618  0.62594  1.0000
  I   I114      1.0  0.32211  0.26770  0.00257  1.0000
  I   I115      1.0  0.86258  0.83262  0.55541  1.0000
  I   I116      1.0  0.86403  0.85513  0.44168  1.0000
  I   I117      1.0  0.08690  0.14411  0.67834  1.0000
  I   I118      1.0  0.54427  0.46984  0.97716  1.0000
  I   I119      1.0  0.62498  0.48887  0.81094  1.0000
  I   I120      1.0  0.99186  0.06752  0.16260  1.0000
  I   I121      1.0  0.23688  0.54924  0.09441  1.0000
  I   I122      1.0  0.94317  0.52303  0.49894  1.0000
  I   I123      1.0  0.09174  0.10295  0.07249  1.0000
  I   I124      1.0  0.87379  0.34438  0.12080  1.0000
  I   I125      1.0  0.51843  0.43119  0.20538  1.0000
  I   I126      1.0  0.07503  0.89714  0.25020  1.0000
  I   I127      1.0  0.37767  0.90823  0.24089  1.0000
  I   I128      1.0  0.84483  0.32504  0.61226  1.0000
  I   I129      1.0  0.60565  0.15045  0.15100  1.0000
  I   I130      1.0  0.99042  0.56348  0.06595  1.0000
  I   I131      1.0  0.55227  0.66297  0.79856  1.0000
  I   I132      1.0  0.84682  0.46451  0.87668  1.0000
  I   I133      1.0  0.64819  0.23954  0.26218  1.0000
  I   I134      1.0  0.38925  0.50630  0.24681  1.0000
  I   I135      1.0  0.42873  0.45538  0.35186  1.0000
  I   I136      1.0  0.56502  0.26402  0.74661  1.0000
  I   I137      1.0  0.69688  0.78987  0.15664  1.0000
  I   I138      1.0  0.49698  0.77880  0.53443  1.0000
  I   I139      1.0  0.39073  0.58285  0.13725  1.0000
  I   I140      1.0  0.84203  0.11921  0.52930  1.0000
  I   I141      1.0  0.73927  0.63587  0.10837  1.0000
  I   I142      1.0  0.36388  0.67110  0.69348  1.0000
  I   I143      1.0  0.14589  0.35942  0.80828  1.0000
  I   I144      1.0  0.04876  0.24176  0.98091  1.0000
  I   I145      1.0  0.46323  0.92559  0.68735  1.0000
  I   I146      1.0  0.50491  0.16518  0.58530  1.0000
  I   I147      1.0  0.81132  0.75451  0.00308  1.0000
  I   I148      1.0  0.76384  0.25064  0.11724  1.0000
  I   I149      1.0  0.26887  0.82735  0.90123  1.0000
  I   I150      1.0  0.30768  0.15363  0.37529  1.0000
  I   I151      1.0  0.00682  0.83378  0.04897  1.0000
  I   I152      1.0  0.42906  0.51699  0.80836  1.0000
  I   I153      1.0  0.39173  0.89992  0.94423  1.0000
  I   I154      1.0  0.52998  0.14144  0.81563  1.0000
  I   I155      1.0  0.48321  0.23879  0.69218  1.0000
  I   I156      1.0  0.13958  0.65835  0.59432  1.0000
  I   I157      1.0  0.52307  0.96176  0.17464  1.0000
  I   I158      1.0  0.15306  0.98318  0.73131  1.0000
  I   I159      1.0  0.54779  0.07386  0.19304  1.0000
  I   I160      1.0  0.97797  0.75681  0.85107  1.0000
  I   I161      1.0  0.37638  0.20908  0.98844  1.0000
  I   I162      1.0  0.93783  0.77983  0.70183  1.0000
  I   I163      1.0  0.83064  0.81794  0.39913  1.0000
  I   I164      1.0  0.08883  0.20055  0.74262  1.0000
  I   I165      1.0  0.93955  0.16653  0.54525  1.0000
  I   I166      1.0  0.65691  0.43598  0.86383  1.0000
  I   I167      1.0  0.76128  0.93630  0.94144  1.0000
  I   I168      1.0  0.08318  0.65239  0.92071  1.0000
  I   I169      1.0  0.01451  0.49570  0.50996  1.0000
  I   I170      1.0  0.97770  0.46408  0.57991  1.0000
  I   I171      1.0  0.17778  0.55296  0.11665  1.0000
  I   I172      1.0  0.86063  0.33532  0.27382  1.0000
  I   I173      1.0  0.00919  0.90768  0.20643  1.0000
  I   I174      1.0  0.80797  0.38438  0.22148  1.0000
  I   I175      1.0  0.87670  0.30265  0.49227  1.0000
  I   I176      1.0  0.60705  0.20488  0.11778  1.0000
  I   I177      1.0  0.16380  0.82040  0.58781  1.0000
  I   I178      1.0  0.53590  0.61677  0.86492  1.0000
  I   I179      1.0  0.79371  0.51438  0.83412  1.0000
  I   I180      1.0  0.98034  0.55942  0.18433  1.0000
  I   I181      1.0  0.01562  0.19988  0.25634  1.0000
  I   I182      1.0  0.42912  0.41096  0.43323  1.0000
  I   I183      1.0  0.73054  0.24527  0.42431  1.0000
  I   I184      1.0  0.64871  0.77568  0.23788  1.0000
  I   I185      1.0  0.53366  0.74061  0.62166  1.0000
  I   I186      1.0  0.56333  0.21147  0.75070  1.0000
  I   I187      1.0  0.85737  0.06461  0.60081  1.0000
  I   I188      1.0  0.73476  0.57541  0.04696  1.0000
  I   I189      1.0  0.39852  0.63557  0.17060  1.0000
  I   I190      1.0  0.13094  0.30553  0.87425  1.0000
  I   I191      1.0  0.33254  0.14186  0.67958  1.0000
  I   I192      1.0  0.42363  0.66284  0.69050  1.0000
  I   I193      1.0  0.42589  0.94124  0.77842  1.0000
  I   I194      1.0  0.28567  0.12721  0.74568  1.0000
  I   I195      1.0  0.88836  0.73045  0.01410  1.0000
  I   I196      1.0  0.86396  0.26730  0.07483  1.0000
  I   I197      1.0  0.54836  0.08817  0.90032  1.0000
  I   I198      1.0  0.28153  0.20332  0.46532  1.0000
  I   I199      1.0  0.02429  0.88376  0.07506  1.0000
  I   I200      1.0  0.46245  0.38357  0.93977  1.0000
  I   I201      1.0  0.35875  0.88778  0.02344  1.0000
  I   I202      1.0  0.85500  0.69411  0.47196  1.0000
  I   I203      1.0  0.94614  0.18050  0.36142  1.0000
  I   I204      1.0  0.13337  0.63347  0.38031  1.0000
  I   I205      1.0  0.14376  0.49722  0.29002  1.0000
  I   I206      1.0  0.08815  0.00950  0.64420  1.0000
  I   I207      1.0  0.55078  0.00523  0.15830  1.0000
  I   I208      1.0  0.66656  0.90774  0.60426  1.0000
  I   I209      1.0  0.31551  0.19861  0.95675  1.0000
  I   I210      1.0  0.99369  0.72252  0.74453  1.0000
  I   I211      1.0  0.91755  0.81390  0.41255  1.0000
  I   I212      1.0  0.26509  0.10266  0.00260  1.0000
  I   I213      1.0  0.97152  0.12409  0.43259  1.0000
  I   I214      1.0  0.61020  0.48388  0.94625  1.0000
  I   I215      1.0  0.79374  0.87860  0.00931  1.0000
  I   I216      1.0  0.09084  0.70607  0.86424  1.0000
  I   I217      1.0  0.96780  0.45883  0.43876  1.0000
  I   I218      1.0  0.16081  0.02297  0.20829  1.0000
  I   I219      1.0  0.18065  0.58821  0.21198  1.0000
  I   I220      1.0  0.56680  0.45817  0.15793  1.0000
  I   I221      1.0  0.04107  0.85609  0.28762  1.0000
  I   I222      1.0  0.83568  0.31040  0.19075  1.0000
  I   I223      1.0  0.95475  0.34051  0.50094  1.0000
  I   I224      1.0  0.66349  0.11881  0.19069  1.0000
  I   I225      1.0  0.38791  0.95000  0.33060  1.0000
  I   I226      1.0  0.48696  0.66215  0.79968  1.0000
  I   I227      1.0  0.86635  0.54963  0.73581  1.0000
  I   I228      1.0  0.96657  0.48604  0.19224  1.0000
  I   I229      1.0  0.05919  0.22119  0.21963  1.0000
  I   I230      1.0  0.41483  0.44890  0.19154  1.0000
  I   I231      1.0  0.67094  0.29039  0.49157  1.0000
  I   I232      1.0  0.55281  0.82844  0.29035  1.0000
  I   I233      1.0  0.55588  0.69452  0.52612  1.0000
  I   I234      1.0  0.61527  0.25756  0.66052  1.0000
  I   I235      1.0  0.51414  0.13883  0.97739  1.0000
  I   I236      1.0  0.77774  0.65695  0.08225  1.0000
  I   I237      1.0  0.37996  0.64169  0.04049  1.0000
  I   I238      1.0  0.09879  0.34472  0.78636  1.0000
  I   I239      1.0  0.18364  0.20687  0.96110  1.0000
  I   I240      1.0  0.41704  0.69145  0.56316  1.0000
  I   I241      1.0  0.49227  0.91434  0.56590  1.0000
  I   I242      1.0  0.51816  0.12453  0.47051  1.0000
  I   I243      1.0  0.86540  0.69080  0.05572  1.0000
  I   I244      1.0  0.78240  0.28819  0.14268  1.0000
  I   I245      1.0  0.27238  0.67419  0.40880  1.0000
  I   I246      1.0  0.31694  0.19676  0.34890  1.0000
  I   I247      1.0  0.94368  0.88281  0.00981  1.0000
  I   I248      1.0  0.47042  0.46576  0.76844  1.0000
  I   I249      1.0  0.37402  0.93371  0.83404  1.0000
  I   I250      1.0  0.82254  0.65393  0.40589  1.0000
  I   I251      1.0  0.48255  0.30012  0.66619  1.0000
  I   I252      1.0  0.08671  0.65690  0.46388  1.0000
  I   I253      1.0  0.26232  0.43670  0.33767  1.0000
  I   I254      1.0  0.09336  0.04136  0.75781  1.0000
  I   I255      1.0  0.47867  0.09525  0.19152  1.0000
  I   I256      1.0  0.18896  0.52952  0.66797  1.0000
  I   I257      1.0  0.33013  0.21388  0.07874  1.0000
  I   I258      1.0  0.93303  0.75185  0.78838  1.0000
  I   I259      1.0  0.88735  0.77986  0.47338  1.0000
  I   I260      1.0  0.03219  0.20993  0.67475  1.0000
  I   I261      1.0  0.94156  0.12333  0.32052  1.0000
  I   I262      1.0  0.60040  0.44429  0.78712  1.0000
  I   I263      1.0  0.75371  0.81575  0.98437  1.0000
  I   I264      1.0  0.10843  0.68426  0.99082  1.0000
  I   I265      1.0  0.02790  0.45307  0.45434  1.0000
  I   I266      1.0  0.09783  0.08994  0.20018  1.0000
  I   I267      1.0  0.23578  0.56552  0.20619  1.0000
  I   I268      1.0  0.53195  0.47852  0.26407  1.0000
  I   I269      1.0  0.01674  0.95938  0.32205  1.0000
  I   I270      1.0  0.80619  0.44020  0.14207  1.0000
  I   I271      1.0  0.82173  0.36322  0.51143  1.0000
  I   I272      1.0  0.66335  0.17382  0.21262  1.0000
  I   I273      1.0  0.39018  0.87835  0.37903  1.0000
  I   I274      1.0  0.53639  0.69032  0.89576  1.0000
  I   I275      1.0  0.80504  0.59298  0.76031  1.0000
  I   I276      1.0  0.93620  0.55233  0.13316  1.0000
  I   I277      1.0  0.04055  0.26019  0.31652  1.0000
  I   I278      1.0  0.35983  0.48173  0.33156  1.0000
  I   I279      1.0  0.69785  0.21680  0.37338  1.0000
  I   I280      1.0  0.68311  0.73360  0.11920  1.0000
  I   I281      1.0  0.61976  0.68009  0.48828  1.0000
  I   I282      1.0  0.61989  0.19973  0.75061  1.0000
  I   I283      1.0  0.47962  0.17696  0.89636  1.0000
  I   I284      1.0  0.77397  0.57407  0.14756  1.0000
  I   I285      1.0  0.44054  0.64789  0.05299  1.0000
  I   I286      1.0  0.15901  0.35910  0.94176  1.0000
  I   I287      1.0  0.11337  0.18855  0.92801  1.0000
  I   I288      1.0  0.37371  0.60387  0.65160  1.0000
  I   I289      1.0  0.43007  0.97030  0.57098  1.0000
  I   I290      1.0  0.25966  0.20219  0.70939  1.0000
  I   I291      1.0  0.49616  0.11730  0.59736  1.0000
  I   I292      1.0  0.89402  0.23282  0.16622  1.0000
  I   I293      1.0  0.28186  0.68233  0.28126  1.0000
  I   I294      1.0  0.27093  0.17982  0.26452  1.0000
  I   I295      1.0  0.94758  0.93381  0.88289  1.0000
  I   I296      1.0  0.50235  0.48843  0.85551  1.0000
  I   I297      1.0  0.38769  0.82208  0.97845  1.0000
  I   I298      1.0  0.49943  0.10294  0.85363  1.0000
  I   I299      1.0  0.79265  0.72236  0.52434  1.0000
  I   I300      1.0  0.06611  0.68724  0.59693  1.0000
  I   I301      1.0  0.48148  0.00137  0.26982  1.0000
  I   I302      1.0  0.19622  0.48394  0.34550  1.0000
  I   I303      1.0  0.06282  0.97459  0.58717  1.0000
  I   I304      1.0  0.98903  0.66911  0.82809  1.0000
  I   I305      1.0  0.62381  0.91115  0.72909  1.0000
  I   I306      1.0  0.36865  0.42304  0.40292  1.0000
  I   I307      1.0  0.93777  0.79398  0.54171  1.0000
  I   I308      1.0  0.22864  0.07741  0.05901  1.0000
  I   I309      1.0  0.89098  0.19308  0.42425  1.0000
  I   I310      1.0  0.56594  0.49434  0.87375  1.0000
  I   I311      1.0  0.76510  0.85554  0.07476  1.0000
  I   I312      1.0  0.04723  0.06560  0.11248  1.0000
  I   I313      1.0  0.16933  0.51129  0.19585  1.0000
  I   I314      1.0  0.04257  0.46701  0.61572  1.0000
  I   I315      1.0  0.08228  0.16685  0.16527  1.0000
  I   I316      1.0  0.81752  0.36249  0.10950  1.0000
  I   I317      1.0  0.56781  0.40930  0.30583  1.0000
  I   I318      1.0  0.01366  0.95587  0.20587  1.0000
  I   I319      1.0  0.15931  0.75973  0.58916  1.0000
  I   I320      1.0  0.92824  0.39762  0.43757  1.0000
  I   I321      1.0  0.64539  0.11731  0.31696  1.0000
  I   I322      1.0  0.50370  0.72416  0.73514  1.0000
  I   I323      1.0  0.83950  0.53193  0.84986  1.0000
  I   I324      1.0  0.01217  0.49608  0.09678  1.0000
  I   I325      1.0  0.97635  0.27033  0.25504  1.0000
  I   I326      1.0  0.37800  0.48155  0.44324  1.0000
  I   I327      1.0  0.66477  0.23331  0.48502  1.0000
  I   I328      1.0  0.56889  0.79770  0.17511  1.0000
  I   I329      1.0  0.58710  0.65148  0.44090  1.0000
  I   I330      1.0  0.55522  0.23718  0.64646  1.0000
  I   I331      1.0  0.41382  0.58467  0.02267  1.0000
  I   I332      1.0  0.57310  0.09334  0.75921  1.0000
  I   I333      1.0  0.79981  0.58126  0.03952  1.0000
  I   I334      1.0  0.46755  0.63054  0.56343  1.0000
  I   I335      1.0  0.18722  0.30110  0.78982  1.0000
  I   I336      1.0  0.09253  0.18124  0.04370  1.0000
  I   I337      1.0  0.49770  0.97002  0.61930  1.0000
  I   I338      1.0  0.27511  0.14223  0.62602  1.0000
  I   I339      1.0  0.50667  0.05405  0.54481  1.0000
  I   I340      1.0  0.82937  0.22333  0.05816  1.0000
  I   I341      1.0  0.31254  0.75426  0.90210  1.0000
  I   I342      1.0  0.24795  0.15583  0.50362  1.0000
  I   I343      1.0  0.95826  0.92380  0.01626  1.0000
  I   I344      1.0  0.44265  0.44833  0.86550  1.0000
  I   I345      1.0  0.34325  0.86279  0.88458  1.0000
  I   I346      1.0  0.51589  0.08995  0.73096  1.0000
  I   I347      1.0  0.79580  0.71603  0.40129  1.0000
  I   I348      1.0  0.11472  0.58079  0.41162  1.0000
  I   I349      1.0  0.52285  0.06937  0.09997  1.0000
  I   I350      1.0  0.23972  0.47481  0.45472  1.0000
  I   I351      1.0  0.06546  0.98543  0.72463  1.0000
  I   I352      1.0  0.97898  0.70687  0.91274  1.0000
  I   I353      1.0  0.16034  0.48981  0.68071  1.0000
  I   I354      1.0  0.35774  0.40701  0.52509  1.0000
  I   I355      1.0  0.90641  0.86400  0.51914  1.0000
  I   I356      1.0  0.10334  0.18864  0.60677  1.0000
  I   I357      1.0  0.96080  0.19441  0.46351  1.0000
  I   I358      1.0  0.03742  0.72491  0.95906  1.0000
  I   I359      1.0  0.81501  0.80242  0.02616  1.0000
  I   I360      1.0  0.02695  0.02383  0.05865  1.0000
  I   I361      1.0  0.17942  0.54455  0.28643  1.0000
  I   I362      1.0  0.05640  0.39921  0.54769  1.0000
  I   I363      1.0  0.15603  0.04688  0.08350  1.0000
  I   I364      1.0  0.86816  0.40189  0.15983  1.0000
  I   I365      1.0  0.60553  0.45368  0.28924  1.0000
  I   I366      1.0  0.06152  0.89256  0.35830  1.0000
  I   I367      1.0  0.23105  0.76216  0.57558  1.0000
  I   I368      1.0  0.88251  0.35705  0.58322  1.0000
  I   I369      1.0  0.60894  0.18336  0.24265  1.0000
  I   I370      1.0  0.48793  0.68132  0.92650  1.0000
  I   I371      1.0  0.87654  0.48466  0.77651  1.0000
  I   I372      1.0  0.06185  0.50788  0.08742  1.0000
  I   I373      1.0  0.07740  0.18550  0.43089  1.0000
  I   I374      1.0  0.34719  0.47880  0.19608  1.0000
  I   I375      1.0  0.66107  0.28387  0.36891  1.0000
  I   I376      1.0  0.72162  0.72814  0.24154  1.0000
  I   I377      1.0  0.57125  0.75411  0.55216  1.0000
  I   I378      1.0  0.56457  0.16869  0.61543  1.0000
  I   I379      1.0  0.42331  0.62246  0.94229  1.0000
  I   I380      1.0  0.87150  0.11545  0.66303  1.0000
  I   I381      1.0  0.72933  0.55425  0.15675  1.0000
  I   I382      1.0  0.42190  0.60375  0.73502  1.0000
  I   I383      1.0  0.19303  0.29006  0.91306  1.0000
  I   I384      1.0  0.07763  0.24209  0.08177  1.0000
