data_image0
_chemical_formula_structural       Ti96I384
_chemical_formula_sum              "Ti96 I384"
_cell_length_a       74.485
_cell_length_b       74.4124
_cell_length_c       36.4261
_cell_angle_alpha    88.7757
_cell_angle_beta     88.7757
_cell_angle_gamma    62.1586

_space_group_name_H-M_alt    "P 1"
_space_group_IT_number       1

loop_
  _space_group_symop_operation_xyz
  'x, y, z'

loop_
  _atom_site_type_symbol
  _atom_site_label
  _atom_site_symmetry_multiplicity
  _atom_site_fract_x
  _atom_site_fract_y
  _atom_site_fract_z
  _atom_site_occupancy
  Ti  Ti1       1.0  0.84375  0.15306  0.89328  1.0000
  Ti  Ti2       1.0  0.47785  0.68503  0.53876  1.0000
  Ti  Ti3       1.0  0.10892  0.03923  0.12451  1.0000
  Ti  Ti4       1.0  0.04552  0.30140  0.04239  1.0000
  Ti  Ti5       1.0  0.20217  0.05901  0.62581  1.0000
  Ti  Ti6       1.0  0.42877  0.36586  0.37872  1.0000
  Ti  Ti7       1.0  0.61584  0.32521  0.82803  1.0000
  Ti  Ti8       1.0  0.34246  0.63291  0.02993  1.0000
  Ti  Ti9       1.0  0.25154  0.33249  0.52695  1.0000
  Ti  Ti10      1.0  0.61020  0.74316  0.31384  1.0000
  Ti  Ti11      1.0  0.29074  0.10150  0.43086  1.0000
  Ti  Ti12      1.0  0.94774  0.08907  0.69796  1.0000
  Ti  Ti13      1.0  0.82879  0.79552  0.47289  1.0000
  Ti  Ti14      1.0  0.04900  0.35656  0.95893  1.0000
  Ti  Ti15      1.0  0.79794  0.61456  0.71122  1.0000
  Ti  Ti16      1.0  0.10960  0.47147  0.37779  1.0000
  Ti  Ti17      1.0  0.07146  0.99836  0.61226  1.0000
  Ti  Ti18      1.0  0.19284  0.25616  0.99880  1.0000
  Ti  Ti19      1.0  0.94354  0.03992  0.89411  1.0000
  Ti  Ti20      1.0  0.17771  0.52512  0.11605  1.0000
  Ti  Ti21      1.0  0.32869  0.64705  0.11302  1.0000
  Ti  Ti22      1.0  0.88958  0.31224  0.59310  1.0000
  Ti  Ti23      1.0  0.94844  0.81102  0.49841  1.0000
  Ti  Ti24      1.0  0.71785  0.27891  0.68752  1.0000
  Ti  Ti25      1.0  0.66713  0.53104  0.43296  1.0000
  Ti  Ti26      1.0  0.75545  0.92999  0.05084  1.0000
  Ti  Ti27      1.0  0.50645  0.44048  0.24100  1.0000
  Ti  Ti28      1.0  0.36979  0.12778  0.69963  1.0000
  Ti  Ti29      1.0  0.32231  0.84280  0.58210  1.0000
  Ti  Ti30      1.0  0.46589  0.83299  0.76169  1.0000
  Ti  Ti31      1.0  0.30098  0.70927  0.35683  1.0000
  Ti  Ti32      1.0  0.57819  0.73441  0.93951  1.0000
  Ti  Ti33      1.0  0.49256  0.51946  0.26361  1.0000
  Ti  Ti34      1.0  0.66021  0.56731  0.82017  1.0000
  Ti  Ti35      1.0  0.84771  0.66389  0.18491  1.0000
  Ti  Ti36      1.0  0.55195  0.27434  0.61204  1.0000
  Ti  Ti37      1.0  0.87722  0.69037  0.71809  1.0000
  Ti  Ti38      1.0  0.31460  0.27879  0.86326  1.0000
  Ti  Ti39      1.0  0.85701  0.59755  0.04049  1.0000
  Ti  Ti40      1.0  0.57196  0.73453  0.30867  1.0000
  Ti  Ti41      1.0  0.90923  0.41990  0.09575  1.0000
  Ti  Ti42      1.0  0.02399  0.47771  0.22853  1.0000
  Ti  Ti43      1.0  0.91916  0.90071  0.94537  1.0000
  Ti  Ti44      1.0  0.93746  0.43823  0.14542  1.0000
  Ti  Ti45      1.0  0.33001  0.19873  0.31356  1.0000
  Ti  Ti46      1.0  0.62755  0.99908  0.10953  1.0000
  Ti  Ti47      1.0  0.14543  0.95106  0.80936  1.0000
  Ti  Ti48      1.0  0.06491  0.06154  0.92741  1.0000
  Ti  Ti49      1.0  0.92911  0.91111  0.86696  1.0000
  Ti  Ti50      1.0  0.13119  0.11362  0.51793  1.0000
  Ti  Ti51      1.0  0.43060  0.68207  0.55590  1.0000
  Ti  Ti52      1.0  0.77757  0.48376  0.70502  1.0000
  Ti  Ti53      1.0  0.14619  0.81887  0.48060  1.0000
  Ti  Ti54      1.0  0.59724  0.94636  0.44351  1.0000
  Ti  Ti55      1.0  0.59220  0.71339  0.06887  1.0000
  Ti  Ti56      1.0  0.50370  0.92787  0.20509  1.0000
  Ti  Ti57      1.0  0.22587  0.36619  0.57873  1.0000
  Ti  Ti58      1.0  0.32434  0.76649  0.90185  1.0000
  Ti  Ti59      1.0  0.43371  0.54554  0.98067  1.0000
  Ti  Ti60      1.0  0.93715  0.10774  0.59707  1.0000
  Ti  Ti61      1.0  0.72710  0.76285  0.03128  1.0000
  Ti  Ti62      1.0  0.88084  0.76989  0.49816  1.0000
  Ti  Ti63      1.0  0.22815  0.52306  0.04482  1.0000
  Ti  Ti64      1.0  0.22695  0.22833  0.02791  1.0000
  Ti  Ti65      1.0  0.23605  0.72699  0.82588  1.0000
  Ti  Ti66      1.0  0.23483  0.44978  0.25658  1.0000
  Ti  Ti67      1.0  0.13940  0.22409  0.36589  1.0000
  Ti  Ti68      1.0  0.55463  0.12958  0.24387  1.0000
  Ti  Ti69      1.0  0.78033  0.95375  0.02988  1.0000
  Ti  Ti70      1.0  0.10982  0.28235  0.40809  1.0000
  Ti  Ti71      1.0  0.83965  0.87483  0.24246  1.0000
  Ti  Ti72      1.0  0.19724  0.91552  0.78245  1.0000
  Ti  Ti73      1.0  0.52359  0.41459  0.15009  1.0000
  Ti  Ti74      1.0  0.64176  0.55859  0.35774  1.0000
  Ti  Ti75      1.0  0.40403  0.12174  0.84329  1.0000
  Ti  Ti76      1.0  0.36899  0.09339  0.61661  1.0000
  Ti  Ti77      1.0  0.81965  0.56269  0.63559  1.0000
  Ti  Ti78      1.0  0.36233  0.79193  0.65781  1.0000
  Ti  Ti79      1.0  0.33865  0.64391  0.76645  1.0000
  Ti  Ti80      1.0  0.21813  0.07346  0.09614  1.0000
  Ti  Ti81      1.0  0.70107  0.69398  0.84859  1.0000
  Ti  Ti82      1.0  0.87902  0.37465  0.26126  1.0000
  Ti  Ti83      1.0  0.03208  0.42315  0.86884  1.0000
  Ti  Ti84      1.0  0.55129  0.21284  0.57267  1.0000
  Ti  Ti85      1.0  0.85416  0.67650  0.68030  1.0000
  Ti  Ti86      1.0  0.59302  0.28120  0.77474  1.0000
  Ti  Ti87      1.0  0.36135  0.17597  0.22997  1.0000
  Ti  Ti88      1.0  0.72567  0.81401  0.14972  1.0000
  Ti  Ti89      1.0  0.36427  0.44080  0.14232  1.0000
  Ti  Ti90      1.0  0.09224  0.42166  0.20685  1.0000
  Ti  Ti91      1.0  0.24573  0.77462  0.19992  1.0000
  Ti  Ti92      1.0  0.80333  0.98727  0.72121  1.0000
  Ti  Ti93      1.0  0.73889  0.24842  0.58405  1.0000
  Ti  Ti94      1.0  0.09953  0.02692  0.95846  1.0000
  Ti  Ti95      1.0  0.90658  0.44589  0.91820  1.0000
  Ti  Ti96      1.0  0.89622  0.33090  0.69087  1.0000
  I   I1        1.0  0.18035  0.93945  0.83857  1.0000
  I   I2        1.0  0.46843  0.66894  0.60881  1.0000
  I   I3        1.0  0.89975  0.94352  0.89306  1.0000
  I   I4        1.0  0.14990  0.83113  0.41319  1.0000
  I   I5        1.0  0.46671  0.35674  0.38812  1.0000
  I   I6        1.0  0.60672  0.95720  0.38365  1.0000
  I   I7        1.0  0.36453  0.61564  0.08262  1.0000
  I   I8        1.0  0.51278  0.89488  0.24979  1.0000
  I   I9        1.0  0.23619  0.39622  0.56479  1.0000
  I   I10       1.0  0.63904  0.74171  0.34766  1.0000
  I   I11       1.0  0.25762  0.13057  0.46949  1.0000
  I   I12       1.0  0.19789  0.08709  0.58392  1.0000
  I   I13       1.0  0.82321  0.80330  0.54569  1.0000
  I   I14       1.0  0.26268  0.49730  0.07282  1.0000
  I   I15       1.0  0.79000  0.58108  0.70412  1.0000
  I   I16       1.0  0.61930  0.76396  0.25559  1.0000
  I   I17       1.0  0.20923  0.46489  0.30947  1.0000
  I   I18       1.0  0.22284  0.26729  0.01563  1.0000
  I   I19       1.0  0.19389  0.51603  0.04902  1.0000
  I   I20       1.0  0.30563  0.06600  0.46764  1.0000
  I   I21       1.0  0.34695  0.61031  0.97131  1.0000
  I   I22       1.0  0.94968  0.77732  0.48588  1.0000
  I   I23       1.0  0.86323  0.89049  0.26610  1.0000
  I   I24       1.0  0.17038  0.19318  0.33036  1.0000
  I   I25       1.0  0.67324  0.53925  0.50199  1.0000
  I   I26       1.0  0.37761  0.12898  0.89316  1.0000
  I   I27       1.0  0.46940  0.44681  0.23573  1.0000
  I   I28       1.0  0.37592  0.15897  0.68891  1.0000
  I   I29       1.0  0.39630  0.75641  0.66211  1.0000
  I   I30       1.0  0.43537  0.86735  0.78907  1.0000
  I   I31       1.0  0.22610  0.08672  0.15494  1.0000
  I   I32       1.0  0.73491  0.69142  0.86111  1.0000
  I   I33       1.0  0.37838  0.61654  0.78168  1.0000
  I   I34       1.0  0.88562  0.64265  0.16082  1.0000
  I   I35       1.0  0.57492  0.17888  0.61692  1.0000
  I   I36       1.0  0.63252  0.59616  0.86143  1.0000
  I   I37       1.0  0.83189  0.69124  0.60966  1.0000
  I   I38       1.0  0.85965  0.56191  0.03285  1.0000
  I   I39       1.0  0.89426  0.71287  0.70689  1.0000
  I   I40       1.0  0.93456  0.43172  0.06962  1.0000
  I   I41       1.0  0.12733  0.40365  0.24624  1.0000
  I   I42       1.0  0.53307  0.75924  0.28644  1.0000
  I   I43       1.0  0.29501  0.78806  0.95201  1.0000
  I   I44       1.0  0.94437  0.47268  0.12459  1.0000
  I   I45       1.0  0.32211  0.19576  0.23334  1.0000
  I   I46       1.0  0.94252  0.43426  0.95196  1.0000
  I   I47       1.0  0.13822  0.98959  0.78329  1.0000
  I   I48       1.0  0.09489  0.04204  0.88073  1.0000
  I   I49       1.0  0.92143  0.91244  0.01022  1.0000
  I   I50       1.0  0.45548  0.72386  0.54594  1.0000
  I   I51       1.0  0.50823  0.68308  0.57794  1.0000
  I   I52       1.0  0.18011  0.09847  0.08404  1.0000
  I   I53       1.0  0.16775  0.78101  0.49234  1.0000
  I   I54       1.0  0.62813  0.92184  0.48311  1.0000
  I   I55       1.0  0.60379  0.33922  0.89341  1.0000
  I   I56       1.0  0.31277  0.62469  0.07374  1.0000
  I   I57       1.0  0.87845  0.48501  0.92537  1.0000
  I   I58       1.0  0.58031  0.74081  0.23973  1.0000
  I   I59       1.0  0.47048  0.51802  0.99001  1.0000
  I   I60       1.0  0.89725  0.12892  0.60571  1.0000
  I   I61       1.0  0.85664  0.80804  0.44539  1.0000
  I   I62       1.0  0.90557  0.73323  0.52006  1.0000
  I   I63       1.0  0.23383  0.51608  0.97266  1.0000
  I   I64       1.0  0.10924  0.43636  0.39574  1.0000
  I   I65       1.0  0.25189  0.69478  0.86251  1.0000
  I   I66       1.0  0.26841  0.42933  0.28951  1.0000
  I   I67       1.0  0.97919  0.01837  0.86570  1.0000
  I   I68       1.0  0.15121  0.56222  0.10325  1.0000
  I   I69       1.0  0.79632  0.94422  0.96541  1.0000
  I   I70       1.0  0.13195  0.29914  0.41539  1.0000
  I   I71       1.0  0.96491  0.81935  0.43843  1.0000
  I   I72       1.0  0.12718  0.95227  0.87209  1.0000
  I   I73       1.0  0.54218  0.43572  0.19646  1.0000
  I   I74       1.0  0.71396  0.94218  0.03094  1.0000
  I   I75       1.0  0.75334  0.95536  0.10354  1.0000
  I   I76       1.0  0.79949  0.57243  0.57316  1.0000
  I   I77       1.0  0.82914  0.58980  0.75235  1.0000
  I   I78       1.0  0.87194  0.16304  0.90772  1.0000
  I   I79       1.0  0.48911  0.55510  0.24827  1.0000
  I   I80       1.0  0.32881  0.67827  0.31229  1.0000
  I   I81       1.0  0.54563  0.76386  0.90954  1.0000
  I   I82       1.0  0.90514  0.34909  0.21205  1.0000
  I   I83       1.0  0.07360  0.41276  0.86555  1.0000
  I   I84       1.0  0.53117  0.19364  0.55876  1.0000
  I   I85       1.0  0.88459  0.67683  0.63689  1.0000
  I   I86       1.0  0.21437  0.43866  0.21253  1.0000
  I   I87       1.0  0.86402  0.60615  0.97216  1.0000
  I   I88       1.0  0.57138  0.70009  0.29942  1.0000
  I   I89       1.0  0.94390  0.39570  0.15410  1.0000
  I   I90       1.0  0.10550  0.44214  0.16150  1.0000
  I   I91       1.0  0.24466  0.78099  0.26808  1.0000
  I   I92       1.0  0.82952  0.95550  0.75740  1.0000
  I   I93       1.0  0.97805  0.41353  0.13900  1.0000
  I   I94       1.0  0.08393  0.00311  0.92345  1.0000
  I   I95       1.0  0.64527  0.99413  0.17171  1.0000
  I   I96       1.0  0.90914  0.35385  0.65296  1.0000
  I   I97       1.0  0.13577  0.04761  0.09049  1.0000
  I   I98       1.0  0.80641  0.18382  0.86947  1.0000
  I   I99       1.0  0.39960  0.69232  0.50938  1.0000
  I   I100      1.0  0.06843  0.29910  0.09717  1.0000
  I   I101      1.0  0.70318  0.84305  0.10403  1.0000
  I   I102      1.0  0.24248  0.03877  0.63467  1.0000
  I   I103      1.0  0.57809  0.32776  0.80192  1.0000
  I   I104      1.0  0.56425  0.74675  0.01443  1.0000
  I   I105      1.0  0.26280  0.29264  0.51996  1.0000
  I   I106      1.0  0.96057  0.11356  0.63823  1.0000
  I   I107      1.0  0.61760  0.70223  0.31515  1.0000
  I   I108      1.0  0.93856  0.06228  0.74056  1.0000
  I   I109      1.0  0.77366  0.62720  0.77615  1.0000
  I   I110      1.0  0.90439  0.75761  0.43423  1.0000
  I   I111      1.0  0.20793  0.53780  0.12424  1.0000
  I   I112      1.0  0.21969  0.23942  0.94219  1.0000
  I   I113      1.0  0.25902  0.74275  0.78895  1.0000
  I   I114      1.0  0.03988  0.03277  0.62394  1.0000
  I   I115      1.0  0.15623  0.19280  0.41869  1.0000
  I   I116      1.0  0.11360  0.24015  0.31487  1.0000
  I   I117      1.0  0.52131  0.16360  0.23408  1.0000
  I   I118      1.0  0.85959  0.30161  0.57927  1.0000
  I   I119      1.0  0.08654  0.29207  0.34644  1.0000
  I   I120      1.0  0.23037  0.91470  0.79857  1.0000
  I   I121      1.0  0.50022  0.40159  0.11620  1.0000
  I   I122      1.0  0.67019  0.49607  0.44774  1.0000
  I   I123      1.0  0.38967  0.15705  0.81386  1.0000
  I   I124      1.0  0.49503  0.81658  0.81520  1.0000
  I   I125      1.0  0.39160  0.11866  0.76448  1.0000
  I   I126      1.0  0.36656  0.82092  0.69369  1.0000
  I   I127      1.0  0.51043  0.50285  0.32357  1.0000
  I   I128      1.0  0.08281  0.32688  0.98588  1.0000
  I   I129      1.0  0.66855  0.72553  0.81972  1.0000
  I   I130      1.0  0.57894  0.28684  0.62970  1.0000
  I   I131      1.0  0.88214  0.40653  0.22456  1.0000
  I   I132      1.0  0.85311  0.65593  0.25553  1.0000
  I   I133      1.0  0.88717  0.59592  0.08056  1.0000
  I   I134      1.0  0.31777  0.27031  0.93865  1.0000
  I   I135      1.0  0.24140  0.47642  0.21877  1.0000
  I   I136      1.0  0.06660  0.46074  0.24252  1.0000
  I   I137      1.0  0.73959  0.49943  0.69467  1.0000
  I   I138      1.0  0.35552  0.47419  0.17106  1.0000
  I   I139      1.0  0.22165  0.80129  0.15544  1.0000
  I   I140      1.0  0.77239  0.98105  0.72154  1.0000
  I   I141      1.0  0.73360  0.25708  0.51679  1.0000
  I   I142      1.0  0.10161  0.06228  0.96171  1.0000
  I   I143      1.0  0.11970  0.99828  0.14174  1.0000
  I   I144      1.0  0.87425  0.34446  0.75654  1.0000
  I   I145      1.0  0.84386  0.12655  0.93767  1.0000
  I   I146      1.0  0.48295  0.70188  0.47015  1.0000
  I   I147      1.0  0.07118  0.07213  0.12705  1.0000
  I   I148      1.0  0.78142  0.50473  0.64935  1.0000
  I   I149      1.0  0.19545  0.02725  0.61150  1.0000
  I   I150      1.0  0.40697  0.37937  0.43536  1.0000
  I   I151      1.0  0.56217  0.72294  0.12584  1.0000
  I   I152      1.0  0.37088  0.64022  0.99808  1.0000
  I   I153      1.0  0.21102  0.34507  0.53788  1.0000
  I   I154      1.0  0.90345  0.89300  0.87764  1.0000
  I   I155      1.0  0.31663  0.10872  0.45715  1.0000
  I   I156      1.0  0.95805  0.08642  0.53335  1.0000
  I   I157      1.0  0.78837  0.65419  0.70239  1.0000
  I   I158      1.0  0.15437  0.50896  0.13018  1.0000
  I   I159      1.0  0.72057  0.79087  0.07844  1.0000
  I   I160      1.0  0.26580  0.19722  0.02261  1.0000
  I   I161      1.0  0.06609  0.99555  0.54133  1.0000
  I   I162      1.0  0.21380  0.20990  0.98180  1.0000
  I   I163      1.0  0.92273  0.07203  0.85184  1.0000
  I   I164      1.0  0.57576  0.10972  0.18759  1.0000
  I   I165      1.0  0.29603  0.67259  0.13966  1.0000
  I   I166      1.0  0.89405  0.29675  0.68352  1.0000
  I   I167      1.0  0.95703  0.80260  0.56887  1.0000
  I   I168      1.0  0.67682  0.31219  0.69515  1.0000
  I   I169      1.0  0.62565  0.54674  0.42497  1.0000
  I   I170      1.0  0.63447  0.53018  0.33283  1.0000
  I   I171      1.0  0.48754  0.48239  0.24943  1.0000
  I   I172      1.0  0.35570  0.14014  0.62305  1.0000
  I   I173      1.0  0.29557  0.83703  0.55388  1.0000
  I   I174      1.0  0.45319  0.80673  0.75291  1.0000
  I   I175      1.0  0.31647  0.70964  0.42249  1.0000
  I   I176      1.0  0.57157  0.71283  0.89665  1.0000
  I   I177      1.0  0.32627  0.61179  0.74369  1.0000
  I   I178      1.0  0.85041  0.39526  0.31265  1.0000
  I   I179      1.0  0.01667  0.45798  0.83265  1.0000
  I   I180      1.0  0.54102  0.23640  0.51226  1.0000
  I   I181      1.0  0.82985  0.68530  0.74177  1.0000
  I   I182      1.0  0.62086  0.24563  0.75011  1.0000
  I   I183      1.0  0.35191  0.18925  0.37362  1.0000
  I   I184      1.0  0.70186  0.79786  0.16542  1.0000
  I   I185      1.0  0.37912  0.41216  0.19284  1.0000
  I   I186      1.0  0.01400  0.50866  0.27559  1.0000
  I   I187      1.0  0.79340  0.01241  0.77630  1.0000
  I   I188      1.0  0.92271  0.45182  0.20916  1.0000
  I   I189      1.0  0.29981  0.18978  0.34048  1.0000
  I   I190      1.0  0.64704  0.01571  0.06382  1.0000
  I   I191      1.0  0.13861  0.08076  0.48337  1.0000
  I   I192      1.0  0.10123  0.01967  0.05745  1.0000
  I   I193      1.0  0.35637  0.83078  0.54185  1.0000
  I   I194      1.0  0.09095  0.14170  0.50730  1.0000
  I   I195      1.0  0.11586  0.04216  0.18884  1.0000
  I   I196      1.0  0.02205  0.29020  0.07828  1.0000
  I   I197      1.0  0.35492  0.76402  0.93721  1.0000
  I   I198      1.0  0.41616  0.39772  0.32998  1.0000
  I   I199      1.0  0.60878  0.70137  0.99849  1.0000
  I   I200      1.0  0.52742  0.91870  0.15254  1.0000
  I   I201      1.0  0.25938  0.35748  0.48177  1.0000
  I   I202      1.0  0.42410  0.58094  0.95134  1.0000
  I   I203      1.0  0.80238  0.91285  0.05802  1.0000
  I   I204      1.0  0.98660  0.07076  0.72049  1.0000
  I   I205      1.0  0.85223  0.75431  0.50147  1.0000
  I   I206      1.0  0.06058  0.36718  0.89211  1.0000
  I   I207      1.0  0.82766  0.59843  0.65054  1.0000
  I   I208      1.0  0.14527  0.46179  0.40107  1.0000
  I   I209      1.0  0.07697  0.96224  0.62825  1.0000
  I   I210      1.0  0.34359  0.67672  0.78178  1.0000
  I   I211      1.0  0.10418  0.24462  0.41695  1.0000
  I   I212      1.0  0.18169  0.51881  0.19468  1.0000
  I   I213      1.0  0.75655  0.99173  0.02862  1.0000
  I   I214      1.0  0.92976  0.28954  0.60301  1.0000
  I   I215      1.0  0.91432  0.84164  0.49494  1.0000
  I   I216      1.0  0.70760  0.29424  0.61966  1.0000
  I   I217      1.0  0.70246  0.51652  0.39841  1.0000
  I   I218      1.0  0.43812  0.09133  0.81232  1.0000
  I   I219      1.0  0.52108  0.40219  0.22335  1.0000
  I   I220      1.0  0.85653  0.54242  0.60999  1.0000
  I   I221      1.0  0.30719  0.87801  0.60576  1.0000
  I   I222      1.0  0.33277  0.09973  0.59477  1.0000
  I   I223      1.0  0.27442  0.74826  0.35624  1.0000
  I   I224      1.0  0.60238  0.74688  0.91824  1.0000
  I   I225      1.0  0.45350  0.53799  0.27330  1.0000
  I   I226      1.0  0.84056  0.38243  0.24157  1.0000
  I   I227      1.0  0.82810  0.65029  0.14562  1.0000
  I   I228      1.0  0.52539  0.29157  0.66177  1.0000
  I   I229      1.0  0.10432  0.99701  0.64600  1.0000
  I   I230      1.0  0.34268  0.28699  0.87187  1.0000
  I   I231      1.0  0.82390  0.62801  0.04426  1.0000
  I   I232      1.0  0.02616  0.33870  0.92609  1.0000
  I   I233      1.0  0.89673  0.39035  0.11190  1.0000
  I   I234      1.0  0.99790  0.46967  0.25831  1.0000
  I   I235      1.0  0.96509  0.91158  0.87456  1.0000
  I   I236      1.0  0.77622  0.24553  0.56910  1.0000
  I   I237      1.0  0.24314  0.74276  0.18223  1.0000
  I   I238      1.0  0.92416  0.46324  0.87385  1.0000
  I   I239      1.0  0.86057  0.34834  0.62960  1.0000
  I   I240      1.0  0.03172  0.06269  0.89469  1.0000
  I   I241      1.0  0.85493  0.14414  0.82588  1.0000
  I   I242      1.0  0.42681  0.65237  0.58015  1.0000
  I   I243      1.0  0.63323  0.96593  0.07969  1.0000
  I   I244      1.0  0.71294  0.83742  0.21092  1.0000
  I   I245      1.0  0.16084  0.83179  0.53284  1.0000
  I   I246      1.0  0.43736  0.32784  0.38659  1.0000
  I   I247      1.0  0.60407  0.35491  0.78404  1.0000
  I   I248      1.0  0.31995  0.67721  0.03256  1.0000
  I   I249      1.0  0.27315  0.33393  0.58152  1.0000
  I   I250      1.0  0.41661  0.53311  0.93800  1.0000
  I   I251      1.0  0.27802  0.10099  0.36538  1.0000
  I   I252      1.0  0.93331  0.07569  0.62655  1.0000
  I   I253      1.0  0.82035  0.78440  0.40555  1.0000
  I   I254      1.0  0.04502  0.38614  0.00425  1.0000
  I   I255      1.0  0.75528  0.76326  0.98734  1.0000
  I   I256      1.0  0.21090  0.75878  0.86518  1.0000
  I   I257      1.0  0.89048  0.64822  0.72323  1.0000
  I   I258      1.0  0.16605  0.25819  0.05378  1.0000
  I   I259      1.0  0.14996  0.24704  0.41380  1.0000
  I   I260      1.0  0.53780  0.11117  0.27947  1.0000
  I   I261      1.0  0.35746  0.65881  0.13640  1.0000
  I   I262      1.0  0.87973  0.33605  0.53177  1.0000
  I   I263      1.0  0.86036  0.83498  0.25408  1.0000
  I   I264      1.0  0.52331  0.23315  0.62317  1.0000
  I   I265      1.0  0.65781  0.57589  0.40409  1.0000
  I   I266      1.0  0.75162  0.94251  0.97366  1.0000
  I   I267      1.0  0.52208  0.43639  0.09330  1.0000
  I   I268      1.0  0.36493  0.09436  0.71690  1.0000
  I   I269      1.0  0.34986  0.77648  0.71141  1.0000
  I   I270      1.0  0.38984  0.09339  0.55569  1.0000
  I   I271      1.0  0.27304  0.69872  0.35760  1.0000
  I   I272      1.0  0.70308  0.67455  0.79010  1.0000
  I   I273      1.0  0.49786  0.51623  0.19584  1.0000
  I   I274      1.0  0.64831  0.54652  0.78362  1.0000
  I   I275      1.0  0.82603  0.69924  0.15847  1.0000
  I   I276      1.0  0.57295  0.23323  0.62220  1.0000
  I   I277      1.0  0.91337  0.36428  0.30009  1.0000
  I   I278      1.0  0.27830  0.30900  0.85460  1.0000
  I   I279      1.0  0.30997  0.23795  0.31928  1.0000
  I   I280      1.0  0.78480  0.48978  0.77651  1.0000
  I   I281      1.0  0.88452  0.44927  0.13511  1.0000
  I   I282      1.0  0.05558  0.43575  0.19003  1.0000
  I   I283      1.0  0.95909  0.87538  0.93261  1.0000
  I   I284      1.0  0.74288  0.29370  0.69992  1.0000
  I   I285      1.0  0.38982  0.18404  0.19062  1.0000
  I   I286      1.0  0.87830  0.43410  0.90244  1.0000
  I   I287      1.0  0.12202  0.95370  0.74919  1.0000
  I   I288      1.0  0.05400  0.10090  0.92133  1.0000
  I   I289      1.0  0.92826  0.93404  0.80411  1.0000
  I   I290      1.0  0.13637  0.10038  0.58418  1.0000
  I   I291      1.0  0.45482  0.67442  0.49585  1.0000
  I   I292      1.0  0.79605  0.44737  0.68501  1.0000
  I   I293      1.0  0.11277  0.81582  0.47243  1.0000
  I   I294      1.0  0.57060  0.93477  0.41578  1.0000
  I   I295      1.0  0.64483  0.33497  0.83208  1.0000
  I   I296      1.0  0.46362  0.94862  0.19674  1.0000
  I   I297      1.0  0.23617  0.33324  0.62322  1.0000
  I   I298      1.0  0.33768  0.76780  0.83307  1.0000
  I   I299      1.0  0.12263  0.48268  0.31404  1.0000
  I   I300      1.0  0.74183  0.21313  0.56249  1.0000
  I   I301      1.0  0.70303  0.76247  0.98476  1.0000
  I   I302      1.0  0.79965  0.82867  0.47029  1.0000
  I   I303      1.0  0.57612  0.78053  0.30564  1.0000
  I   I304      1.0  0.17249  0.29248  0.96982  1.0000
  I   I305      1.0  0.08122  0.49954  0.41486  1.0000
  I   I306      1.0  0.62604  0.28266  0.80398  1.0000
  I   I307      1.0  0.92101  0.02243  0.88476  1.0000
  I   I308      1.0  0.24108  0.54716  0.02357  1.0000
  I   I309      1.0  0.33916  0.61760  0.15723  1.0000
  I   I310      1.0  0.89544  0.88540  0.97461  1.0000
  I   I311      1.0  0.80386  0.88671  0.27655  1.0000
  I   I312      1.0  0.20919  0.87852  0.81025  1.0000
  I   I313      1.0  0.55638  0.37640  0.13532  1.0000
  I   I314      1.0  0.60774  0.58751  0.33540  1.0000
  I   I315      1.0  0.43193  0.12813  0.87819  1.0000
  I   I316      1.0  0.38710  0.05631  0.61467  1.0000
  I   I317      1.0  0.39806  0.10321  0.65163  1.0000
  I   I318      1.0  0.31896  0.83007  0.65975  1.0000
  I   I319      1.0  0.32513  0.62983  0.82224  1.0000
  I   I320      1.0  0.07304  0.27282  0.00954  1.0000
  I   I321      1.0  0.62651  0.69144  0.09064  1.0000
  I   I322      1.0  0.69533  0.55702  0.84788  1.0000
  I   I323      1.0  0.01319  0.42253  0.92707  1.0000
  I   I324      1.0  0.54589  0.29545  0.54945  1.0000
  I   I325      1.0  0.86605  0.69660  0.78895  1.0000
  I   I326      1.0  0.57392  0.30316  0.72154  1.0000
  I   I327      1.0  0.37943  0.18655  0.28774  1.0000
  I   I328      1.0  0.58696  0.75024  0.36801  1.0000
  I   I329      1.0  0.38319  0.43653  0.08293  1.0000
  I   I330      1.0  0.09668  0.38891  0.18545  1.0000
  I   I331      1.0  0.37598  0.13789  0.26333  1.0000
  I   I332      1.0  0.33097  0.72962  0.90551  1.0000
  I   I333      1.0  0.89743  0.41373  0.03353  1.0000
  I   I334      1.0  0.13661  0.00020  0.95409  1.0000
  I   I335      1.0  0.58966  0.00838  0.12171  1.0000
  I   I336      1.0  0.92881  0.31984  0.73343  1.0000
  I   I337      1.0  0.95625  0.88188  0.82406  1.0000
  I   I338      1.0  0.16277  0.11763  0.49607  1.0000
  I   I339      1.0  0.40499  0.70899  0.60337  1.0000
  I   I340      1.0  0.23913  0.07032  0.03629  1.0000
  I   I341      1.0  0.18939  0.07700  0.68732  1.0000
  I   I342      1.0  0.58037  0.97677  0.48752  1.0000
  I   I343      1.0  0.60048  0.74559  0.07788  1.0000
  I   I344      1.0  0.50435  0.95420  0.25454  1.0000
  I   I345      1.0  0.19235  0.39144  0.61665  1.0000
  I   I346      1.0  0.07719  0.30841  0.44425  1.0000
  I   I347      1.0  0.41941  0.54692  0.04160  1.0000
  I   I348      1.0  0.92588  0.14761  0.56738  1.0000
  I   I349      1.0  0.74589  0.72697  0.07109  1.0000
  I   I350      1.0  0.89594  0.78761  0.53899  1.0000
  I   I351      1.0  0.02941  0.34095  0.02844  1.0000
  I   I352      1.0  0.22346  0.23448  0.10173  1.0000
  I   I353      1.0  0.22523  0.72055  0.76256  1.0000
  I   I354      1.0  0.57095  0.28043  0.82642  1.0000
  I   I355      1.0  0.95023  0.03355  0.96682  1.0000
  I   I356      1.0  0.57341  0.14785  0.27303  1.0000
  I   I357      1.0  0.75905  0.89901  0.09409  1.0000
  I   I358      1.0  0.70081  0.27829  0.75267  1.0000
  I   I359      1.0  0.83947  0.88053  0.16666  1.0000
  I   I360      1.0  0.18092  0.94791  0.72986  1.0000
  I   I361      1.0  0.50782  0.43530  0.31110  1.0000
  I   I362      1.0  0.66649  0.55593  0.29831  1.0000
  I   I363      1.0  0.80740  0.96309  0.05361  1.0000
  I   I364      1.0  0.49085  0.84041  0.72203  1.0000
  I   I365      1.0  0.81736  0.53090  0.65523  1.0000
  I   I366      1.0  0.34403  0.79270  0.59363  1.0000
  I   I367      1.0  0.31241  0.67062  0.71538  1.0000
  I   I368      1.0  0.21297  0.04313  0.11934  1.0000
  I   I369      1.0  0.68995  0.68766  0.91500  1.0000
  I   I370      1.0  0.65859  0.59258  0.76816  1.0000
  I   I371      1.0  0.00781  0.40935  0.83171  1.0000
  I   I372      1.0  0.75393  0.23841  0.66277  1.0000
  I   I373      1.0  0.84223  0.71746  0.66966  1.0000
  I   I374      1.0  0.30826  0.26375  0.79681  1.0000
  I   I375      1.0  0.35659  0.16398  0.16166  1.0000
  I   I376      1.0  0.76515  0.78971  0.15755  1.0000
  I   I377      1.0  0.32903  0.45278  0.10164  1.0000
  I   I378      1.0  0.00576  0.49624  0.16699  1.0000
  I   I379      1.0  0.27759  0.76941  0.16282  1.0000
  I   I380      1.0  0.81920  0.00297  0.67491  1.0000
  I   I381      1.0  0.93529  0.11421  0.75092  1.0000
  I   I382      1.0  0.06108  0.05586  0.99771  1.0000
  I   I383      1.0  0.92288  0.40705  0.89015  1.0000
  I   I384      1.0  0.15943  0.91279  0.76997  1.0000
