data_image0
_chemical_formula_structural       Ti96I384
_chemical_formula_sum              "Ti96 I384"
_cell_length_a       37.0304
_cell_length_b       36.5187
_cell_length_c       22.207
_cell_angle_alpha    88.7757
_cell_angle_beta     88.7757
_cell_angle_gamma    62.1586

_space_group_name_H-M_alt    "P 1"
_space_group_IT_number       1

loop_
  _space_group_symop_operation_xyz
  'x, y, z'

loop_
  _atom_site_type_symbol
  _atom_site_label
  _atom_site_symmetry_multiplicity
  _atom_site_fract_x
  _atom_site_fract_y
  _atom_site_fract_z
  _atom_site_occupancy
  Ti  Ti1       1.0  0.17066  0.07229  0.26161  1.0000
  Ti  Ti2       1.0  0.17499  0.07569  0.61083  1.0000
  Ti  Ti3       1.0  0.14965  0.07623  0.94369  1.0000
  Ti  Ti4       1.0  0.15376  0.35143  0.26183  1.0000
  Ti  Ti5       1.0  0.14672  0.34321  0.60099  1.0000
  Ti  Ti6       1.0  0.14678  0.34517  0.92326  1.0000
  Ti  Ti7       1.0  0.17548  0.58673  0.29897  1.0000
  Ti  Ti8       1.0  0.17322  0.58480  0.61502  1.0000
  Ti  Ti9       1.0  0.16815  0.58218  0.96424  1.0000
  Ti  Ti10      1.0  0.13307  0.85302  0.24459  1.0000
  Ti  Ti11      1.0  0.14203  0.85097  0.57271  1.0000
  Ti  Ti12      1.0  0.14281  0.85421  0.90603  1.0000
  Ti  Ti13      1.0  0.41856  0.09019  0.22481  1.0000
  Ti  Ti14      1.0  0.40963  0.08626  0.56746  1.0000
  Ti  Ti15      1.0  0.40527  0.09850  0.90230  1.0000
  Ti  Ti16      1.0  0.39668  0.33477  0.27498  1.0000
  Ti  Ti17      1.0  0.41427  0.33773  0.61017  1.0000
  Ti  Ti18      1.0  0.39439  0.33621  0.94908  1.0000
  Ti  Ti19      1.0  0.38723  0.61768  0.26437  1.0000
  Ti  Ti20      1.0  0.39281  0.61801  0.57877  1.0000
  Ti  Ti21      1.0  0.38541  0.63565  0.91992  1.0000
  Ti  Ti22      1.0  0.42054  0.82788  0.23009  1.0000
  Ti  Ti23      1.0  0.42907  0.84025  0.56305  1.0000
  Ti  Ti24      1.0  0.42574  0.84029  0.90132  1.0000
  Ti  Ti25      1.0  0.68204  0.06465  0.20127  1.0000
  Ti  Ti26      1.0  0.67865  0.07444  0.53650  1.0000
  Ti  Ti27      1.0  0.68119  0.06445  0.86638  1.0000
  Ti  Ti28      1.0  0.63429  0.36049  0.23639  1.0000
  Ti  Ti29      1.0  0.63045  0.35567  0.58012  1.0000
  Ti  Ti30      1.0  0.62271  0.37167  0.91768  1.0000
  Ti  Ti31      1.0  0.67335  0.58582  0.23967  1.0000
  Ti  Ti32      1.0  0.66651  0.58742  0.57265  1.0000
  Ti  Ti33      1.0  0.67442  0.59122  0.92304  1.0000
  Ti  Ti34      1.0  0.65661  0.84877  0.26613  1.0000
  Ti  Ti35      1.0  0.64782  0.86071  0.59990  1.0000
  Ti  Ti36      1.0  0.65477  0.85222  0.92219  1.0000
  Ti  Ti37      1.0  0.89518  0.09252  0.23204  1.0000
  Ti  Ti38      1.0  0.90223  0.09773  0.57032  1.0000
  Ti  Ti39      1.0  0.90218  0.09127  0.90173  1.0000
  Ti  Ti40      1.0  0.90848  0.34210  0.23774  1.0000
  Ti  Ti41      1.0  0.91962  0.34135  0.56570  1.0000
  Ti  Ti42      1.0  0.92016  0.33193  0.90945  1.0000
  Ti  Ti43      1.0  0.90864  0.59365  0.27290  1.0000
  Ti  Ti44      1.0  0.90299  0.59922  0.59968  1.0000
  Ti  Ti45      1.0  0.90444  0.59269  0.93916  1.0000
  Ti  Ti46      1.0  0.90627  0.83773  0.24231  1.0000
  Ti  Ti47      1.0  0.93097  0.82726  0.58186  1.0000
  Ti  Ti48      1.0  0.91715  0.82507  0.91662  1.0000
  Ti  Ti49      1.0  0.09033  0.15375  0.11336  1.0000
  Ti  Ti50      1.0  0.11050  0.14337  0.43052  1.0000
  Ti  Ti51      1.0  0.10438  0.14800  0.77444  1.0000
  Ti  Ti52      1.0  0.10331  0.41604  0.09747  1.0000
  Ti  Ti53      1.0  0.09454  0.42578  0.43302  1.0000
  Ti  Ti54      1.0  0.09635  0.41360  0.76375  1.0000
  Ti  Ti55      1.0  0.10858  0.64999  0.12255  1.0000
  Ti  Ti56      1.0  0.10023  0.65263  0.46393  1.0000
  Ti  Ti57      1.0  0.09931  0.64229  0.79635  1.0000
  Ti  Ti58      1.0  0.07008  0.91369  0.07016  1.0000
  Ti  Ti59      1.0  0.08029  0.92111  0.41365  1.0000
  Ti  Ti60      1.0  0.07967  0.92306  0.73288  1.0000
  Ti  Ti61      1.0  0.33311  0.14926  0.06748  1.0000
  Ti  Ti62      1.0  0.33192  0.14280  0.39573  1.0000
  Ti  Ti63      1.0  0.33114  0.15507  0.73171  1.0000
  Ti  Ti64      1.0  0.33394  0.40264  0.10610  1.0000
  Ti  Ti65      1.0  0.33900  0.41643  0.44798  1.0000
  Ti  Ti66      1.0  0.34141  0.41930  0.78139  1.0000
  Ti  Ti67      1.0  0.31995  0.68736  0.08687  1.0000
  Ti  Ti68      1.0  0.31849  0.67707  0.42354  1.0000
  Ti  Ti69      1.0  0.31939  0.67892  0.74459  1.0000
  Ti  Ti70      1.0  0.36296  0.90746  0.05940  1.0000
  Ti  Ti71      1.0  0.36905  0.90141  0.39251  1.0000
  Ti  Ti72      1.0  0.36578  0.90497  0.73436  1.0000
  Ti  Ti73      1.0  0.61495  0.13218  0.03796  1.0000
  Ti  Ti74      1.0  0.60957  0.13829  0.36775  1.0000
  Ti  Ti75      1.0  0.60756  0.13066  0.70713  1.0000
  Ti  Ti76      1.0  0.56870  0.44204  0.07913  1.0000
  Ti  Ti77      1.0  0.57548  0.42553  0.40355  1.0000
  Ti  Ti78      1.0  0.57524  0.43867  0.73411  1.0000
  Ti  Ti79      1.0  0.60815  0.65722  0.07437  1.0000
  Ti  Ti80      1.0  0.60362  0.65718  0.40388  1.0000
  Ti  Ti81      1.0  0.60909  0.65045  0.75315  1.0000
  Ti  Ti82      1.0  0.58728  0.90734  0.10036  1.0000
  Ti  Ti83      1.0  0.58342  0.92170  0.43449  1.0000
  Ti  Ti84      1.0  0.58991  0.92265  0.76196  1.0000
  Ti  Ti85      1.0  0.84032  0.16228  0.06301  1.0000
  Ti  Ti86      1.0  0.82873  0.16232  0.40557  1.0000
  Ti  Ti87      1.0  0.84025  0.16941  0.72717  1.0000
  Ti  Ti88      1.0  0.83650  0.39404  0.06443  1.0000
  Ti  Ti89      1.0  0.84255  0.39359  0.39699  1.0000
  Ti  Ti90      1.0  0.83701  0.39962  0.74254  1.0000
  Ti  Ti91      1.0  0.83794  0.66500  0.10777  1.0000
  Ti  Ti92      1.0  0.83799  0.65443  0.43712  1.0000
  Ti  Ti93      1.0  0.84486  0.65464  0.77009  1.0000
  Ti  Ti94      1.0  0.84215  0.89404  0.06401  1.0000
  Ti  Ti95      1.0  0.85472  0.89571  0.42259  1.0000
  Ti  Ti96      1.0  0.85454  0.89089  0.74168  1.0000
  I   I1        1.0  0.08787  0.11267  0.32320  1.0000
  I   I2        1.0  0.09598  0.11530  0.67383  1.0000
  I   I3        1.0  0.07007  0.12759  0.00247  1.0000
  I   I4        1.0  0.07709  0.40071  0.32315  1.0000
  I   I5        1.0  0.06702  0.39172  0.65870  1.0000
  I   I6        1.0  0.07279  0.39358  0.99149  1.0000
  I   I7        1.0  0.08604  0.61555  0.36776  1.0000
  I   I8        1.0  0.09143  0.61080  0.68233  1.0000
  I   I9        1.0  0.09542  0.60634  0.03137  1.0000
  I   I10       1.0  0.05638  0.90251  0.30761  1.0000
  I   I11       1.0  0.06307  0.88801  0.64023  1.0000
  I   I12       1.0  0.06174  0.88282  0.96458  1.0000
  I   I13       1.0  0.33866  0.10756  0.29315  1.0000
  I   I14       1.0  0.33038  0.11256  0.62928  1.0000
  I   I15       1.0  0.32513  0.11922  0.96208  1.0000
  I   I16       1.0  0.32115  0.38337  0.34223  1.0000
  I   I17       1.0  0.32460  0.39202  0.67709  1.0000
  I   I18       1.0  0.31375  0.36859  0.01391  1.0000
  I   I19       1.0  0.31058  0.63647  0.33437  1.0000
  I   I20       1.0  0.31301  0.64168  0.63992  1.0000
  I   I21       1.0  0.30922  0.65342  0.98285  1.0000
  I   I22       1.0  0.34518  0.86820  0.28958  1.0000
  I   I23       1.0  0.34758  0.88074  0.62852  1.0000
  I   I24       1.0  0.34960  0.87056  0.95587  1.0000
  I   I25       1.0  0.59629  0.10475  0.26196  1.0000
  I   I26       1.0  0.59427  0.10384  0.59552  1.0000
  I   I27       1.0  0.60250  0.09770  0.92764  1.0000
  I   I28       1.0  0.55360  0.40243  0.30307  1.0000
  I   I29       1.0  0.54405  0.41377  0.63959  1.0000
  I   I30       1.0  0.54656  0.42520  0.96999  1.0000
  I   I31       1.0  0.59238  0.62639  0.29538  1.0000
  I   I32       1.0  0.58799  0.63324  0.64436  1.0000
  I   I33       1.0  0.59452  0.62151  0.97471  1.0000
  I   I34       1.0  0.57752  0.87771  0.32865  1.0000
  I   I35       1.0  0.57959  0.88124  0.67284  1.0000
  I   I36       1.0  0.57570  0.87336  0.99784  1.0000
  I   I37       1.0  0.81730  0.12581  0.30575  1.0000
  I   I38       1.0  0.82295  0.13229  0.62471  1.0000
  I   I39       1.0  0.82394  0.12534  0.96082  1.0000
  I   I40       1.0  0.82629  0.36003  0.30061  1.0000
  I   I41       1.0  0.83934  0.36267  0.63707  1.0000
  I   I42       1.0  0.83927  0.35477  0.95704  1.0000
  I   I43       1.0  0.82697  0.61716  0.33189  1.0000
  I   I44       1.0  0.82716  0.62092  0.66018  1.0000
  I   I45       1.0  0.82674  0.63040  0.00606  1.0000
  I   I46       1.0  0.83385  0.86450  0.31245  1.0000
  I   I47       1.0  0.84262  0.86498  0.63339  1.0000
  I   I48       1.0  0.83096  0.86178  0.95418  1.0000
  I   I49       1.0  0.14118  0.15300  0.21085  1.0000
  I   I50       1.0  0.15137  0.15396  0.52682  1.0000
  I   I51       1.0  0.14023  0.15345  0.88030  1.0000
  I   I52       1.0  0.13379  0.43492  0.19855  1.0000
  I   I53       1.0  0.13258  0.42120  0.53856  1.0000
  I   I54       1.0  0.13212  0.42418  0.86766  1.0000
  I   I55       1.0  0.13938  0.66461  0.22817  1.0000
  I   I56       1.0  0.13151  0.66811  0.57922  1.0000
  I   I57       1.0  0.12619  0.65982  0.89567  1.0000
  I   I58       1.0  0.10868  0.92801  0.17608  1.0000
  I   I59       1.0  0.11737  0.93341  0.52203  1.0000
  I   I60       1.0  0.10754  0.93480  0.84227  1.0000
  I   I61       1.0  0.35482  0.17897  0.17467  1.0000
  I   I62       1.0  0.35810  0.16665  0.50568  1.0000
  I   I63       1.0  0.35853  0.17875  0.83193  1.0000
  I   I64       1.0  0.36512  0.41493  0.20989  1.0000
  I   I65       1.0  0.38670  0.41457  0.53720  1.0000
  I   I66       1.0  0.36433  0.42274  0.89067  1.0000
  I   I67       1.0  0.33451  0.69545  0.20722  1.0000
  I   I68       1.0  0.35293  0.69835  0.52738  1.0000
  I   I69       1.0  0.33855  0.71736  0.85593  1.0000
  I   I70       1.0  0.39676  0.91588  0.16472  1.0000
  I   I71       1.0  0.40102  0.91839  0.49569  1.0000
  I   I72       1.0  0.39127  0.92175  0.84557  1.0000
  I   I73       1.0  0.64979  0.14606  0.13416  1.0000
  I   I74       1.0  0.63831  0.15416  0.47293  1.0000
  I   I75       1.0  0.63883  0.14737  0.80183  1.0000
  I   I76       1.0  0.61102  0.44155  0.18515  1.0000
  I   I77       1.0  0.61616  0.43241  0.51761  1.0000
  I   I78       1.0  0.61442  0.44158  0.83861  1.0000
  I   I79       1.0  0.64845  0.66761  0.17404  1.0000
  I   I80       1.0  0.64736  0.66176  0.50185  1.0000
  I   I81       1.0  0.64842  0.66162  0.85227  1.0000
  I   I82       1.0  0.61636  0.92855  0.20207  1.0000
  I   I83       1.0  0.61110  0.93962  0.54379  1.0000
  I   I84       1.0  0.61629  0.93826  0.88001  1.0000
  I   I85       1.0  0.87422  0.17130  0.16268  1.0000
  I   I86       1.0  0.86675  0.17709  0.50953  1.0000
  I   I87       1.0  0.87221  0.17589  0.83093  1.0000
  I   I88       1.0  0.85824  0.41510  0.16421  1.0000
  I   I89       1.0  0.86307  0.42123  0.50390  1.0000
  I   I90       1.0  0.86628  0.41562  0.85068  1.0000
  I   I91       1.0  0.86911  0.67899  0.21515  1.0000
  I   I92       1.0  0.85477  0.68755  0.53638  1.0000
  I   I93       1.0  0.87208  0.67334  0.86920  1.0000
  I   I94       1.0  0.86146  0.91707  0.17360  1.0000
  I   I95       1.0  0.89390  0.90379  0.51818  1.0000
  I   I96       1.0  0.89604  0.89899  0.84407  1.0000
  I   I97       1.0  0.16950  0.11252  0.04237  1.0000
  I   I98       1.0  0.18787  0.10958  0.35651  1.0000
  I   I99       1.0  0.18290  0.11467  0.71099  1.0000
  I   I100      1.0  0.17153  0.36614  0.03446  1.0000
  I   I101      1.0  0.17414  0.37778  0.37611  1.0000
  I   I102      1.0  0.17274  0.36960  0.69857  1.0000
  I   I103      1.0  0.18660  0.62434  0.05730  1.0000
  I   I104      1.0  0.18164  0.62622  0.40541  1.0000
  I   I105      1.0  0.17681  0.60677  0.73984  1.0000
  I   I106      1.0  0.15365  0.89259  0.00681  1.0000
  I   I107      1.0  0.15859  0.88170  0.34686  1.0000
  I   I108      1.0  0.16066  0.88333  0.68673  1.0000
  I   I109      1.0  0.40547  0.14151  0.00322  1.0000
  I   I110      1.0  0.42408  0.12402  0.33046  1.0000
  I   I111      1.0  0.41633  0.12037  0.67145  1.0000
  I   I112      1.0  0.42091  0.35650  0.05489  1.0000
  I   I113      1.0  0.41356  0.36914  0.38660  1.0000
  I   I114      1.0  0.42727  0.35906  0.71682  1.0000
  I   I115      1.0  0.40030  0.66833  0.03944  1.0000
  I   I116      1.0  0.39762  0.65676  0.35934  1.0000
  I   I117      1.0  0.39958  0.65457  0.69486  1.0000
  I   I118      1.0  0.44483  0.86898  0.00178  1.0000
  I   I119      1.0  0.44549  0.85401  0.34100  1.0000
  I   I120      1.0  0.44180  0.86810  0.67364  1.0000
  I   I121      1.0  0.69368  0.10136  0.96520  1.0000
  I   I122      1.0  0.69347  0.09768  0.30370  1.0000
  I   I123      1.0  0.68432  0.11041  0.63987  1.0000
  I   I124      1.0  0.64530  0.40125  0.01619  1.0000
  I   I125      1.0  0.65957  0.37971  0.33512  1.0000
  I   I126      1.0  0.64791  0.37942  0.68496  1.0000
  I   I127      1.0  0.68953  0.62227  0.02056  1.0000
  I   I128      1.0  0.68765  0.62392  0.33942  1.0000
  I   I129      1.0  0.69411  0.60743  0.67982  1.0000
  I   I130      1.0  0.65820  0.89257  0.03050  1.0000
  I   I131      1.0  0.66276  0.88284  0.37852  1.0000
  I   I132      1.0  0.67152  0.88851  0.70647  1.0000
  I   I133      1.0  0.92359  0.12373  0.99828  1.0000
  I   I134      1.0  0.90867  0.11646  0.34203  1.0000
  I   I135      1.0  0.92510  0.11856  0.67560  1.0000
  I   I136      1.0  0.92021  0.37149  0.00423  1.0000
  I   I137      1.0  0.91967  0.37798  0.33229  1.0000
  I   I138      1.0  0.91645  0.38159  0.66757  1.0000
  I   I139      1.0  0.91514  0.63346  0.02699  1.0000
  I   I140      1.0  0.92196  0.63417  0.36283  1.0000
  I   I141      1.0  0.92072  0.62870  0.69992  1.0000
  I   I142      1.0  0.92200  0.86094  0.01437  1.0000
  I   I143      1.0  0.92900  0.85918  0.34521  1.0000
  I   I144      1.0  0.94426  0.85498  0.68918  1.0000
  I   I145      1.0  0.12793  0.07132  0.16038  1.0000
  I   I146      1.0  0.14526  0.06601  0.49828  1.0000
  I   I147      1.0  0.12625  0.06562  0.83173  1.0000
  I   I148      1.0  0.12801  0.33245  0.16006  1.0000
  I   I149      1.0  0.10425  0.34073  0.49170  1.0000
  I   I150      1.0  0.11392  0.33651  0.82387  1.0000
  I   I151      1.0  0.14601  0.57278  0.19228  1.0000
  I   I152      1.0  0.14063  0.57055  0.51451  1.0000
  I   I153      1.0  0.13610  0.56157  0.86909  1.0000
  I   I154      1.0  0.08597  0.84223  0.15864  1.0000
  I   I155      1.0  0.11057  0.83975  0.47224  1.0000
  I   I156      1.0  0.11373  0.83550  0.80149  1.0000
  I   I157      1.0  0.38796  0.06959  0.12673  1.0000
  I   I158      1.0  0.38337  0.06269  0.45755  1.0000
  I   I159      1.0  0.37480  0.07719  0.80295  1.0000
  I   I160      1.0  0.35939  0.32354  0.17944  1.0000
  I   I161      1.0  0.35829  0.33637  0.52557  1.0000
  I   I162      1.0  0.36471  0.33322  0.83843  1.0000
  I   I163      1.0  0.36028  0.59620  0.15242  1.0000
  I   I164      1.0  0.37523  0.60093  0.47031  1.0000
  I   I165      1.0  0.35711  0.60970  0.82151  1.0000
  I   I166      1.0  0.39045  0.82219  0.12339  1.0000
  I   I167      1.0  0.39311  0.82477  0.46897  1.0000
  I   I168      1.0  0.39442  0.82553  0.79338  1.0000
  I   I169      1.0  0.65112  0.04996  0.09935  1.0000
  I   I170      1.0  0.64646  0.05935  0.43454  1.0000
  I   I171      1.0  0.65561  0.04701  0.76005  1.0000
  I   I172      1.0  0.58975  0.36319  0.13297  1.0000
  I   I173      1.0  0.60454  0.34773  0.46843  1.0000
  I   I174      1.0  0.57875  0.36849  0.81027  1.0000
  I   I175      1.0  0.63283  0.58167  0.13690  1.0000
  I   I176      1.0  0.63151  0.57732  0.47123  1.0000
  I   I177      1.0  0.62708  0.57557  0.81217  1.0000
  I   I178      1.0  0.63286  0.82614  0.15538  1.0000
  I   I179      1.0  0.62437  0.83630  0.49921  1.0000
  I   I180      1.0  0.62654  0.83841  0.82177  1.0000
  I   I181      1.0  0.87144  0.08181  0.11553  1.0000
  I   I182      1.0  0.86125  0.08531  0.46611  1.0000
  I   I183      1.0  0.86857  0.08280  0.79767  1.0000
  I   I184      1.0  0.88878  0.31241  0.12754  1.0000
  I   I185      1.0  0.89171  0.32084  0.46083  1.0000
  I   I186      1.0  0.88938  0.31661  0.79843  1.0000
  I   I187      1.0  0.88015  0.58021  0.16327  1.0000
  I   I188      1.0  0.88027  0.57578  0.48547  1.0000
  I   I189      1.0  0.88092  0.57559  0.82093  1.0000
  I   I190      1.0  0.86364  0.82211  0.14913  1.0000
  I   I191      1.0  0.89405  0.81096  0.47842  1.0000
  I   I192      1.0  0.88376  0.81283  0.79273  1.0000
  I   I193      1.0  0.24391  0.03508  0.20560  1.0000
  I   I194      1.0  0.25315  0.04536  0.57849  1.0000
  I   I195      1.0  0.22828  0.04371  0.90729  1.0000
  I   I196      1.0  0.22960  0.32254  0.23866  1.0000
  I   I197      1.0  0.21409  0.31663  0.53557  1.0000
  I   I198      1.0  0.22000  0.31127  0.88194  1.0000
  I   I199      1.0  0.24504  0.56613  0.25107  1.0000
  I   I200      1.0  0.24731  0.56197  0.57904  1.0000
  I   I201      1.0  0.23711  0.56969  0.91442  1.0000
  I   I202      1.0  0.20765  0.82581  0.19935  1.0000
  I   I203      1.0  0.21541  0.82256  0.53491  1.0000
  I   I204      1.0  0.21293  0.83368  0.86059  1.0000
  I   I205      1.0  0.48231  0.07893  0.15936  1.0000
  I   I206      1.0  0.47243  0.08317  0.51018  1.0000
  I   I207      1.0  0.47269  0.09229  0.85573  1.0000
  I   I208      1.0  0.46630  0.29714  0.21870  1.0000
  I   I209      1.0  0.47872  0.31450  0.54177  1.0000
  I   I210      1.0  0.46851  0.31263  0.90740  1.0000
  I   I211      1.0  0.45807  0.60307  0.22092  1.0000
  I   I212      1.0  0.46906  0.60576  0.55694  1.0000
  I   I213      1.0  0.45690  0.62203  0.88255  1.0000
  I   I214      1.0  0.49356  0.80654  0.19386  1.0000
  I   I215      1.0  0.50308  0.82500  0.52173  1.0000
  I   I216      1.0  0.49698  0.81634  0.84376  1.0000
  I   I217      1.0  0.74977  0.05520  0.14807  1.0000
  I   I218      1.0  0.74858  0.06418  0.49107  1.0000
  I   I219      1.0  0.74539  0.06429  0.81453  1.0000
  I   I220      1.0  0.70676  0.33005  0.18975  1.0000
  I   I221      1.0  0.71061  0.31865  0.55989  1.0000
  I   I222      1.0  0.69533  0.33214  0.87123  1.0000
  I   I223      1.0  0.74771  0.56125  0.20381  1.0000
  I   I224      1.0  0.74164  0.55153  0.53607  1.0000
  I   I225      1.0  0.74394  0.56288  0.86964  1.0000
  I   I226      1.0  0.72796  0.83658  0.23053  1.0000
  I   I227      1.0  0.71278  0.85684  0.54063  1.0000
  I   I228      1.0  0.72350  0.85129  0.88066  1.0000
  I   I229      1.0  0.96657  0.07723  0.19515  1.0000
  I   I230      1.0  0.96524  0.08551  0.49842  1.0000
  I   I231      1.0  0.97580  0.07398  0.85919  1.0000
  I   I232      1.0  0.97576  0.33297  0.17986  1.0000
  I   I233      1.0  0.97457  0.35979  0.51830  1.0000
  I   I234      1.0  0.98807  0.31774  0.84850  1.0000
  I   I235      1.0  0.97858  0.58211  0.22596  1.0000
  I   I236      1.0  0.97024  0.59222  0.54829  1.0000
  I   I237      1.0  0.97457  0.56587  0.88332  1.0000
  I   I238      1.0  0.97231  0.82990  0.18873  1.0000
  I   I239      1.0  0.00009  0.80894  0.53355  1.0000
  I   I240      1.0  0.99196  0.80383  0.88105  1.0000
  I   I241      1.0  0.18560  0.00074  0.31058  1.0000
  I   I242      1.0  0.18602  0.00678  0.66066  1.0000
  I   I243      1.0  0.15206  0.00901  0.99071  1.0000
  I   I244      1.0  0.15459  0.28697  0.31816  1.0000
  I   I245      1.0  0.15926  0.26938  0.63363  1.0000
  I   I246      1.0  0.14701  0.27740  0.96921  1.0000
  I   I247      1.0  0.19353  0.51760  0.35153  1.0000
  I   I248      1.0  0.19510  0.50671  0.65108  1.0000
  I   I249      1.0  0.19451  0.50580  0.00651  1.0000
  I   I250      1.0  0.15015  0.77699  0.28581  1.0000
  I   I251      1.0  0.14229  0.78517  0.62638  1.0000
  I   I252      1.0  0.15849  0.78227  0.95885  1.0000
  I   I253      1.0  0.44847  0.01505  0.27004  1.0000
  I   I254      1.0  0.43800  0.00623  0.59857  1.0000
  I   I255      1.0  0.43685  0.02312  0.93992  1.0000
  I   I256      1.0  0.41130  0.27266  0.34129  1.0000
  I   I257      1.0  0.42078  0.26741  0.64107  1.0000
  I   I258      1.0  0.40863  0.26142  0.99124  1.0000
  I   I259      1.0  0.40742  0.53989  0.29047  1.0000
  I   I260      1.0  0.40486  0.55368  0.64343  1.0000
  I   I261      1.0  0.40579  0.56494  0.96580  1.0000
  I   I262      1.0  0.42891  0.75774  0.27207  1.0000
  I   I263      1.0  0.45380  0.76655  0.61080  1.0000
  I   I264      1.0  0.44148  0.76635  0.94000  1.0000
  I   I265      1.0  0.70085  0.99300  0.24626  1.0000
  I   I266      1.0  0.71227  0.00267  0.58631  1.0000
  I   I267      1.0  0.70947  0.98749  0.90753  1.0000
  I   I268      1.0  0.63079  0.29573  0.28614  1.0000
  I   I269      1.0  0.62204  0.29129  0.62043  1.0000
  I   I270      1.0  0.62030  0.30507  0.95436  1.0000
  I   I271      1.0  0.67780  0.51427  0.27978  1.0000
  I   I272      1.0  0.66412  0.52198  0.62352  1.0000
  I   I273      1.0  0.68106  0.51937  0.95027  1.0000
  I   I274      1.0  0.66593  0.77915  0.31097  1.0000
  I   I275      1.0  0.68390  0.78351  0.64712  1.0000
  I   I276      1.0  0.69006  0.78019  0.97026  1.0000
  I   I277      1.0  0.90921  0.01904  0.26438  1.0000
  I   I278      1.0  0.92637  0.02069  0.61139  1.0000
  I   I279      1.0  0.92098  0.01625  0.93952  1.0000
  I   I280      1.0  0.94449  0.27205  0.30278  1.0000
  I   I281      1.0  0.96317  0.26488  0.59639  1.0000
  I   I282      1.0  0.94614  0.25629  0.95838  1.0000
  I   I283      1.0  0.93224  0.51967  0.31087  1.0000
  I   I284      1.0  0.93325  0.52066  0.62230  1.0000
  I   I285      1.0  0.91492  0.52202  0.98768  1.0000
  I   I286      1.0  0.93298  0.75767  0.26837  1.0000
  I   I287      1.0  0.94033  0.75953  0.63385  1.0000
  I   I288      1.0  0.92161  0.75926  0.96630  1.0000
  I   I289      1.0  0.02375  0.16594  0.16747  1.0000
  I   I290      1.0  0.04106  0.16474  0.48741  1.0000
  I   I291      1.0  0.03083  0.16677  0.81879  1.0000
  I   I292      1.0  0.03315  0.42545  0.14994  1.0000
  I   I293      1.0  0.02159  0.45302  0.47725  1.0000
  I   I294      1.0  0.02288  0.43999  0.80965  1.0000
  I   I295      1.0  0.03786  0.65723  0.17022  1.0000
  I   I296      1.0  0.03373  0.67566  0.52608  1.0000
  I   I297      1.0  0.03205  0.64591  0.84466  1.0000
  I   I298      1.0  0.99725  0.93363  0.11242  1.0000
  I   I299      1.0  0.00425  0.94744  0.43925  1.0000
  I   I300      1.0  0.01078  0.93518  0.78717  1.0000
  I   I301      1.0  0.27654  0.13752  0.12406  1.0000
  I   I302      1.0  0.25909  0.14757  0.42379  1.0000
  I   I303      1.0  0.26440  0.16369  0.78638  1.0000
  I   I304      1.0  0.26102  0.42738  0.15167  1.0000
  I   I305      1.0  0.26618  0.44526  0.49662  1.0000
  I   I306      1.0  0.26484  0.44831  0.81322  1.0000
  I   I307      1.0  0.24939  0.69674  0.12811  1.0000
  I   I308      1.0  0.25422  0.69058  0.48931  1.0000
  I   I309      1.0  0.24731  0.69220  0.78292  1.0000
  I   I310      1.0  0.29592  0.92080  0.11267  1.0000
  I   I311      1.0  0.29777  0.92583  0.44504  1.0000
  I   I312      1.0  0.29198  0.92106  0.77368  1.0000
  I   I313      1.0  0.54393  0.14805  0.08833  1.0000
  I   I314      1.0  0.53907  0.14675  0.40731  1.0000
  I   I315      1.0  0.54446  0.13361  0.75999  1.0000
  I   I316      1.0  0.49686  0.47059  0.13633  1.0000
  I   I317      1.0  0.51025  0.45070  0.47402  1.0000
  I   I318      1.0  0.50270  0.47566  0.79178  1.0000
  I   I319      1.0  0.53297  0.68682  0.11411  1.0000
  I   I320      1.0  0.53684  0.67470  0.45207  1.0000
  I   I321      1.0  0.53304  0.68166  0.79333  1.0000
  I   I322      1.0  0.51927  0.91571  0.15386  1.0000
  I   I323      1.0  0.51508  0.92340  0.47343  1.0000
  I   I324      1.0  0.52423  0.94262  0.82304  1.0000
  I   I325      1.0  0.77287  0.18193  0.11924  1.0000
  I   I326      1.0  0.75569  0.20362  0.45089  1.0000
  I   I327      1.0  0.76463  0.19059  0.75405  1.0000
  I   I328      1.0  0.77136  0.39162  0.10630  1.0000
  I   I329      1.0  0.77429  0.39944  0.44483  1.0000
  I   I330      1.0  0.77395  0.39350  0.78071  1.0000
  I   I331      1.0  0.77365  0.66840  0.16165  1.0000
  I   I332      1.0  0.76741  0.66234  0.48303  1.0000
  I   I333      1.0  0.77124  0.67591  0.80682  1.0000
  I   I334      1.0  0.76880  0.90747  0.09640  1.0000
  I   I335      1.0  0.78817  0.90416  0.47647  1.0000
  I   I336      1.0  0.78096  0.91065  0.78057  1.0000
  I   I337      1.0  0.07839  0.22806  0.08474  1.0000
  I   I338      1.0  0.09235  0.21211  0.37212  1.0000
  I   I339      1.0  0.08971  0.22080  0.72819  1.0000
  I   I340      1.0  0.07527  0.48990  0.05177  1.0000
  I   I341      1.0  0.09320  0.48648  0.36946  1.0000
  I   I342      1.0  0.09721  0.48126  0.71717  1.0000
  I   I343      1.0  0.08226  0.72615  0.07914  1.0000
  I   I344      1.0  0.07680  0.72002  0.40617  1.0000
  I   I345      1.0  0.07295  0.71654  0.75606  1.0000
  I   I346      1.0  0.05344  0.98670  0.02171  1.0000
  I   I347      1.0  0.07203  0.99292  0.37078  1.0000
  I   I348      1.0  0.06429  0.99688  0.69807  1.0000
  I   I349      1.0  0.28733  0.22850  0.05268  1.0000
  I   I350      1.0  0.30599  0.21706  0.35030  1.0000
  I   I351      1.0  0.30137  0.22861  0.67949  1.0000
  I   I352      1.0  0.32914  0.46605  0.04760  1.0000
  I   I353      1.0  0.32947  0.48312  0.38754  1.0000
  I   I354      1.0  0.34897  0.48360  0.74865  1.0000
  I   I355      1.0  0.30408  0.76416  0.05682  1.0000
  I   I356      1.0  0.29464  0.75114  0.37591  1.0000
  I   I357      1.0  0.28588  0.75207  0.69327  1.0000
  I   I358      1.0  0.34007  0.98204  0.01582  1.0000
  I   I359      1.0  0.35790  0.96901  0.33787  1.0000
  I   I360      1.0  0.34033  0.98320  0.70272  1.0000
  I   I361      1.0  0.59532  0.20613  0.00307  1.0000
  I   I362      1.0  0.58779  0.21019  0.32014  1.0000
  I   I363      1.0  0.57278  0.20659  0.66263  1.0000
  I   I364      1.0  0.56955  0.51506  0.05559  1.0000
  I   I365      1.0  0.57237  0.49552  0.38501  1.0000
  I   I366      1.0  0.57776  0.50100  0.67536  1.0000
  I   I367      1.0  0.60016  0.72370  0.01602  1.0000
  I   I368      1.0  0.59350  0.72682  0.34706  1.0000
  I   I369      1.0  0.59810  0.72055  0.70478  1.0000
  I   I370      1.0  0.54856  0.98199  0.05025  1.0000
  I   I371      1.0  0.56382  0.99346  0.38074  1.0000
  I   I372      1.0  0.56894  0.99228  0.70914  1.0000
  I   I373      1.0  0.81755  0.23562  0.01246  1.0000
  I   I374      1.0  0.83100  0.22889  0.35654  1.0000
  I   I375      1.0  0.84058  0.23650  0.68922  1.0000
  I   I376      1.0  0.80419  0.46998  0.01594  1.0000
  I   I377      1.0  0.80060  0.46905  0.35093  1.0000
  I   I378      1.0  0.80434  0.47498  0.70953  1.0000
  I   I379      1.0  0.80428  0.74356  0.07689  1.0000
  I   I380      1.0  0.80791  0.73112  0.39410  1.0000
  I   I381      1.0  0.82211  0.73003  0.72485  1.0000
  I   I382      1.0  0.82352  0.96427  0.00796  1.0000
  I   I383      1.0  0.83362  0.96813  0.37834  1.0000
  I   I384      1.0  0.84730  0.96468  0.71744  1.0000
