data_image0
_chemical_formula_structural       Ti96I384
_chemical_formula_sum              "Ti96 I384"
_cell_length_a       78.8791
_cell_length_b       78.6317
_cell_length_c       38.5629
_cell_angle_alpha    88.7757
_cell_angle_beta     88.7757
_cell_angle_gamma    62.1586

_space_group_name_H-M_alt    "P 1"
_space_group_IT_number       1

loop_
  _space_group_symop_operation_xyz
  'x, y, z'

loop_
  _atom_site_type_symbol
  _atom_site_label
  _atom_site_symmetry_multiplicity
  _atom_site_fract_x
  _atom_site_fract_y
  _atom_site_fract_z
  _atom_site_occupancy
  Ti  Ti1       1.0  0.57188  0.73369  0.11086  1.0000
  Ti  Ti2       1.0  0.64702  0.89743  0.52391  1.0000
  Ti  Ti3       1.0  0.12093  0.03805  0.46115  1.0000
  Ti  Ti4       1.0  0.39382  0.83463  0.99325  1.0000
  Ti  Ti5       1.0  0.86720  0.93210  0.79335  1.0000
  Ti  Ti6       1.0  0.24489  0.91068  0.30643  1.0000
  Ti  Ti7       1.0  0.53180  0.04180  0.64087  1.0000
  Ti  Ti8       1.0  0.78362  0.29622  0.53600  1.0000
  Ti  Ti9       1.0  0.09184  0.10491  0.64732  1.0000
  Ti  Ti10      1.0  0.92501  0.39181  0.34762  1.0000
  Ti  Ti11      1.0  0.97536  0.95461  0.84992  1.0000
  Ti  Ti12      1.0  0.24225  0.87183  0.07849  1.0000
  Ti  Ti13      1.0  0.50234  0.68871  0.40562  1.0000
  Ti  Ti14      1.0  0.42550  0.78177  0.04691  1.0000
  Ti  Ti15      1.0  0.95056  0.11910  0.89632  1.0000
  Ti  Ti16      1.0  0.89786  0.30002  0.41854  1.0000
  Ti  Ti17      1.0  0.22297  0.17593  0.39748  1.0000
  Ti  Ti18      1.0  0.67138  0.24723  0.41698  1.0000
  Ti  Ti19      1.0  0.24747  0.02072  0.31143  1.0000
  Ti  Ti20      1.0  0.06367  0.38476  0.68227  1.0000
  Ti  Ti21      1.0  0.75479  0.30989  0.47493  1.0000
  Ti  Ti22      1.0  0.56924  0.34944  0.24318  1.0000
  Ti  Ti23      1.0  0.37506  0.29872  0.26321  1.0000
  Ti  Ti24      1.0  0.59553  0.49165  0.49615  1.0000
  Ti  Ti25      1.0  0.81100  0.19128  0.69165  1.0000
  Ti  Ti26      1.0  0.15603  0.83789  0.89230  1.0000
  Ti  Ti27      1.0  0.81519  0.81157  0.99276  1.0000
  Ti  Ti28      1.0  0.41018  0.93351  0.36066  1.0000
  Ti  Ti29      1.0  0.05963  0.80254  0.63609  1.0000
  Ti  Ti30      1.0  0.26805  0.63379  0.45597  1.0000
  Ti  Ti31      1.0  0.93059  0.91464  0.55708  1.0000
  Ti  Ti32      1.0  0.25684  0.04207  0.68694  1.0000
  Ti  Ti33      1.0  0.65955  0.24929  0.05303  1.0000
  Ti  Ti34      1.0  0.87418  0.52946  0.62607  1.0000
  Ti  Ti35      1.0  0.62816  0.19486  0.87828  1.0000
  Ti  Ti36      1.0  0.86995  0.00879  0.95142  1.0000
  Ti  Ti37      1.0  0.52992  0.94179  0.60246  1.0000
  Ti  Ti38      1.0  0.58514  0.54333  0.63321  1.0000
  Ti  Ti39      1.0  0.92126  0.43323  0.36214  1.0000
  Ti  Ti40      1.0  0.69552  0.71179  0.03864  1.0000
  Ti  Ti41      1.0  0.53329  0.50462  0.09658  1.0000
  Ti  Ti42      1.0  0.17667  0.47258  0.22311  1.0000
  Ti  Ti43      1.0  0.48108  0.56575  0.97808  1.0000
  Ti  Ti44      1.0  0.01412  0.34931  0.51288  1.0000
  Ti  Ti45      1.0  0.96721  0.20556  0.63785  1.0000
  Ti  Ti46      1.0  0.74915  0.65215  0.84636  1.0000
  Ti  Ti47      1.0  0.53405  0.34759  0.70789  1.0000
  Ti  Ti48      1.0  0.68061  0.76796  0.56338  1.0000
  Ti  Ti49      1.0  0.90797  0.87197  0.18465  1.0000
  Ti  Ti50      1.0  0.02767  0.38591  0.79796  1.0000
  Ti  Ti51      1.0  0.61423  0.90158  0.44072  1.0000
  Ti  Ti52      1.0  0.35893  0.74804  0.21977  1.0000
  Ti  Ti53      1.0  0.74236  0.90944  0.35476  1.0000
  Ti  Ti54      1.0  0.62039  0.89141  0.87761  1.0000
  Ti  Ti55      1.0  0.73307  0.59674  0.22777  1.0000
  Ti  Ti56      1.0  0.66220  0.06483  0.59238  1.0000
  Ti  Ti57      1.0  0.05566  0.10469  0.67699  1.0000
  Ti  Ti58      1.0  0.66378  0.12953  0.40139  1.0000
  Ti  Ti59      1.0  0.94640  0.28545  0.44641  1.0000
  Ti  Ti60      1.0  0.13267  0.23934  0.54005  1.0000
  Ti  Ti61      1.0  0.48957  0.22289  0.51483  1.0000
  Ti  Ti62      1.0  0.52426  0.70271  0.49200  1.0000
  Ti  Ti63      1.0  0.03375  0.82422  0.94050  1.0000
  Ti  Ti64      1.0  0.63812  0.24280  0.43549  1.0000
  Ti  Ti65      1.0  0.81747  0.54247  0.08116  1.0000
  Ti  Ti66      1.0  0.39169  0.92736  0.44309  1.0000
  Ti  Ti67      1.0  0.19452  0.68907  0.73011  1.0000
  Ti  Ti68      1.0  0.75663  0.62434  0.76912  1.0000
  Ti  Ti69      1.0  0.19476  0.83821  0.88342  1.0000
  Ti  Ti70      1.0  0.35624  0.43241  0.71929  1.0000
  Ti  Ti71      1.0  0.53592  0.64477  0.06685  1.0000
  Ti  Ti72      1.0  0.57331  0.31517  0.61447  1.0000
  Ti  Ti73      1.0  0.45786  0.39449  0.54062  1.0000
  Ti  Ti74      1.0  0.81185  0.14393  0.63412  1.0000
  Ti  Ti75      1.0  0.76427  0.77838  0.29695  1.0000
  Ti  Ti76      1.0  0.10722  0.99800  0.86720  1.0000
  Ti  Ti77      1.0  0.90301  0.12734  0.88980  1.0000
  Ti  Ti78      1.0  0.07483  0.79964  0.74416  1.0000
  Ti  Ti79      1.0  0.62952  0.03414  0.91491  1.0000
  Ti  Ti80      1.0  0.95773  0.66733  0.45517  1.0000
  Ti  Ti81      1.0  0.36216  0.32046  0.17092  1.0000
  Ti  Ti82      1.0  0.66717  0.54443  0.69826  1.0000
  Ti  Ti83      1.0  0.92279  0.23180  0.65924  1.0000
  Ti  Ti84      1.0  0.83072  0.05057  0.96827  1.0000
  Ti  Ti85      1.0  0.48886  0.95246  0.61839  1.0000
  Ti  Ti86      1.0  0.54592  0.07589  0.63699  1.0000
  Ti  Ti87      1.0  0.44831  0.85378  0.65423  1.0000
  Ti  Ti88      1.0  0.78673  0.15964  0.96163  1.0000
  Ti  Ti89      1.0  0.01306  0.25779  0.02787  1.0000
  Ti  Ti90      1.0  0.19565  0.21320  0.36312  1.0000
  Ti  Ti91      1.0  0.55765  0.43180  0.92913  1.0000
  Ti  Ti92      1.0  0.69449  0.58812  0.73544  1.0000
  Ti  Ti93      1.0  0.39886  0.87701  0.81207  1.0000
  Ti  Ti94      1.0  0.71344  0.77239  0.54352  1.0000
  Ti  Ti95      1.0  0.02157  0.93411  0.95833  1.0000
  Ti  Ti96      1.0  0.31944  0.26634  0.91267  1.0000
  I   I1        1.0  0.55189  0.34105  0.76776  1.0000
  I   I2        1.0  0.62741  0.91824  0.39306  1.0000
  I   I3        1.0  0.94275  0.84738  0.19548  1.0000
  I   I4        1.0  0.74710  0.90779  0.42224  1.0000
  I   I5        1.0  0.27457  0.90942  0.27681  1.0000
  I   I6        1.0  0.59212  0.88246  0.86744  1.0000
  I   I7        1.0  0.73185  0.30446  0.52707  1.0000
  I   I8        1.0  0.69668  0.03806  0.57534  1.0000
  I   I9        1.0  0.08912  0.12499  0.70230  1.0000
  I   I10       1.0  0.67670  0.69313  0.03645  1.0000
  I   I11       1.0  0.98859  0.96254  0.79384  1.0000
  I   I12       1.0  0.85912  0.92466  0.85185  1.0000
  I   I13       1.0  0.55301  0.68076  0.52565  1.0000
  I   I14       1.0  0.01587  0.85544  0.98417  1.0000
  I   I15       1.0  0.97217  0.08201  0.89903  1.0000
  I   I16       1.0  0.72668  0.69852  0.06976  1.0000
  I   I17       1.0  0.42701  0.90012  0.47593  1.0000
  I   I18       1.0  0.69557  0.21115  0.39526  1.0000
  I   I19       1.0  0.05275  0.84289  0.92213  1.0000
  I   I20       1.0  0.94316  0.94720  0.82322  1.0000
  I   I21       1.0  0.78097  0.29336  0.60823  1.0000
  I   I22       1.0  0.36394  0.35270  0.14926  1.0000
  I   I23       1.0  0.77093  0.17396  0.02471  1.0000
  I   I24       1.0  0.32629  0.42951  0.71338  1.0000
  I   I25       1.0  0.77786  0.21286  0.71407  1.0000
  I   I26       1.0  0.75418  0.81436  0.31752  1.0000
  I   I27       1.0  0.63598  0.16336  0.84441  1.0000
  I   I28       1.0  0.41332  0.96392  0.36424  1.0000
  I   I29       1.0  0.06245  0.78184  0.78925  1.0000
  I   I30       1.0  0.24961  0.66814  0.47670  1.0000
  I   I31       1.0  0.96513  0.67301  0.51967  1.0000
  I   I32       1.0  0.40049  0.29151  0.20078  1.0000
  I   I33       1.0  0.63035  0.01093  0.85704  1.0000
  I   I34       1.0  0.59631  0.22740  0.88983  1.0000
  I   I35       1.0  0.82300  0.05865  0.03869  1.0000
  I   I36       1.0  0.89480  0.52794  0.57682  1.0000
  I   I37       1.0  0.56904  0.92354  0.63319  1.0000
  I   I38       1.0  0.94579  0.35630  0.36653  1.0000
  I   I39       1.0  0.54339  0.95410  0.54395  1.0000
  I   I40       1.0  0.99883  0.32730  0.51584  1.0000
  I   I41       1.0  0.99671  0.38359  0.79102  1.0000
  I   I42       1.0  0.67254  0.74628  0.06848  1.0000
  I   I43       1.0  0.65475  0.13412  0.47020  1.0000
  I   I44       1.0  0.98521  0.17077  0.59352  1.0000
  I   I45       1.0  0.91582  0.26799  0.64618  1.0000
  I   I46       1.0  0.99789  0.94534  0.00979  1.0000
  I   I47       1.0  0.51562  0.38471  0.70142  1.0000
  I   I48       1.0  0.71282  0.75915  0.60815  1.0000
  I   I49       1.0  0.90675  0.90252  0.20608  1.0000
  I   I50       1.0  0.68354  0.87875  0.53050  1.0000
  I   I51       1.0  0.63537  0.93173  0.50701  1.0000
  I   I52       1.0  0.99151  0.65604  0.43294  1.0000
  I   I53       1.0  0.75710  0.92691  0.31599  1.0000
  I   I54       1.0  0.64930  0.87132  0.83648  1.0000
  I   I55       1.0  0.51100  0.08958  0.60308  1.0000
  I   I56       1.0  0.79401  0.29483  0.45738  1.0000
  I   I57       1.0  0.05560  0.91152  0.98629  1.0000
  I   I58       1.0  0.92682  0.45352  0.41040  1.0000
  I   I59       1.0  0.91260  0.32479  0.41721  1.0000
  I   I60       1.0  0.12527  0.21373  0.51379  1.0000
  I   I61       1.0  0.51084  0.73628  0.52731  1.0000
  I   I62       1.0  0.47094  0.68842  0.41864  1.0000
  I   I63       1.0  0.05744  0.41727  0.65269  1.0000
  I   I64       1.0  0.96635  0.25746  0.48213  1.0000
  I   I65       1.0  0.70456  0.71001  0.97294  1.0000
  I   I66       1.0  0.38563  0.94551  0.31095  1.0000
  I   I67       1.0  0.21019  0.04597  0.30558  1.0000
  I   I68       1.0  0.07394  0.38910  0.74199  1.0000
  I   I69       1.0  0.17901  0.81548  0.84411  1.0000
  I   I70       1.0  0.37260  0.45231  0.75312  1.0000
  I   I71       1.0  0.40937  0.28640  0.29762  1.0000
  I   I72       1.0  0.57197  0.31350  0.54694  1.0000
  I   I73       1.0  0.82497  0.83629  0.01431  1.0000
  I   I74       1.0  0.13463  0.86866  0.85120  1.0000
  I   I75       1.0  0.15400  0.86157  0.94448  1.0000
  I   I76       1.0  0.87098  0.13098  0.85305  1.0000
  I   I77       1.0  0.95149  0.13056  0.95719  1.0000
  I   I78       1.0  0.94413  0.87687  0.54663  1.0000
  I   I79       1.0  0.63339  0.24338  0.08203  1.0000
  I   I80       1.0  0.56482  0.75822  0.15442  1.0000
  I   I81       1.0  0.23255  0.03395  0.65534  1.0000
  I   I82       1.0  0.67788  0.53520  0.76145  1.0000
  I   I83       1.0  0.88816  0.24467  0.62544  1.0000
  I   I84       1.0  0.86966  0.98034  0.90711  1.0000
  I   I85       1.0  0.51400  0.93763  0.67695  1.0000
  I   I86       1.0  0.36778  0.94474  0.48539  1.0000
  I   I87       1.0  0.94000  0.44527  0.31770  1.0000
  I   I88       1.0  0.95453  0.40085  0.37949  1.0000
  I   I89       1.0  0.88238  0.50198  0.66979  1.0000
  I   I90       1.0  0.06572  0.36331  0.82128  1.0000
  I   I91       1.0  0.59366  0.41120  0.93413  1.0000
  I   I92       1.0  0.69959  0.61098  0.77767  1.0000
  I   I93       1.0  0.04722  0.32800  0.47989  1.0000
  I   I94       1.0  0.67627  0.80511  0.56648  1.0000
  I   I95       1.0  0.77769  0.65612  0.80393  1.0000
  I   I96       1.0  0.59160  0.36381  0.23851  1.0000
  I   I97       1.0  0.08815  0.06288  0.48712  1.0000
  I   I98       1.0  0.55438  0.74589  0.05219  1.0000
  I   I99       1.0  0.59374  0.91281  0.49623  1.0000
  I   I100      1.0  0.41088  0.76718  0.09750  1.0000
  I   I101      1.0  0.75960  0.17056  0.91801  1.0000
  I   I102      1.0  0.87563  0.90203  0.75483  1.0000
  I   I103      1.0  0.58076  0.05327  0.65916  1.0000
  I   I104      1.0  0.72444  0.61876  0.16630  1.0000
  I   I105      1.0  0.05976  0.11207  0.61009  1.0000
  I   I106      1.0  0.25460  0.84290  0.11773  1.0000
  I   I107      1.0  0.89470  0.38697  0.34042  1.0000
  I   I108      1.0  0.20529  0.88148  0.08198  1.0000
  I   I109      1.0  0.96373  0.13786  0.85645  1.0000
  I   I110      1.0  0.52884  0.65763  0.37138  1.0000
  I   I111      1.0  0.03246  0.38826  0.63651  1.0000
  I   I112      1.0  0.64076  0.21140  0.41454  1.0000
  I   I113      1.0  0.78901  0.54316  0.12068  1.0000
  I   I114      1.0  0.25503  0.15165  0.35328  1.0000
  I   I115      1.0  0.22048  0.66306  0.77040  1.0000
  I   I116      1.0  0.20497  0.66579  0.67723  1.0000
  I   I117      1.0  0.77043  0.63506  0.71678  1.0000
  I   I118      1.0  0.29248  0.28359  0.96105  1.0000
  I   I119      1.0  0.15813  0.70250  0.73572  1.0000
  I   I120      1.0  0.54430  0.34583  0.62458  1.0000
  I   I121      1.0  0.43977  0.42229  0.58943  1.0000
  I   I122      1.0  0.83119  0.18793  0.74237  1.0000
  I   I123      1.0  0.73720  0.76897  0.28181  1.0000
  I   I124      1.0  0.29371  0.64621  0.44344  1.0000
  I   I125      1.0  0.13777  0.99277  0.89426  1.0000
  I   I126      1.0  0.11121  0.77478  0.77323  1.0000
  I   I127      1.0  0.65026  0.28517  0.06644  1.0000
  I   I128      1.0  0.46386  0.75527  0.06841  1.0000
  I   I129      1.0  0.34331  0.30516  0.23269  1.0000
  I   I130      1.0  0.84784  0.00766  0.99740  1.0000
  I   I131      1.0  0.65616  0.54748  0.62875  1.0000
  I   I132      1.0  0.65734  0.18374  0.92145  1.0000
  I   I133      1.0  0.89013  0.43505  0.34187  1.0000
  I   I134      1.0  0.58987  0.57467  0.61726  1.0000
  I   I135      1.0  0.38777  0.90194  0.39689  1.0000
  I   I136      1.0  0.20585  0.43624  0.22754  1.0000
  I   I137      1.0  0.34708  0.76245  0.28103  1.0000
  I   I138      1.0  0.01293  0.27504  0.96886  1.0000
  I   I139      1.0  0.55003  0.42044  0.87149  1.0000
  I   I140      1.0  0.70180  0.60770  0.68674  1.0000
  I   I141      1.0  0.37905  0.91256  0.82257  1.0000
  I   I142      1.0  0.72547  0.79823  0.54036  1.0000
  I   I143      1.0  0.13563  0.06173  0.45373  1.0000
  I   I144      1.0  0.54344  0.37941  0.28152  1.0000
  I   I145      1.0  0.60492  0.70793  0.13822  1.0000
  I   I146      1.0  0.57567  0.91657  0.42302  1.0000
  I   I147      1.0  0.13300  0.00084  0.44617  1.0000
  I   I148      1.0  0.35048  0.75667  0.15694  1.0000
  I   I149      1.0  0.89440  0.94184  0.80780  1.0000
  I   I150      1.0  0.24373  0.92614  0.36517  1.0000
  I   I151      1.0  0.73441  0.61203  0.28879  1.0000
  I   I152      1.0  0.78598  0.25853  0.52674  1.0000
  I   I153      1.0  0.03814  0.13214  0.72041  1.0000
  I   I154      1.0  0.46945  0.54084  0.99017  1.0000
  I   I155      1.0  0.99288  0.91779  0.83907  1.0000
  I   I156      1.0  0.15691  0.22151  0.58655  1.0000
  I   I157      1.0  0.87537  0.14501  0.93887  1.0000
  I   I158      1.0  0.01191  0.82660  0.88536  1.0000
  I   I159      1.0  0.50188  0.23706  0.55893  1.0000
  I   I160      1.0  0.66716  0.23478  0.48670  1.0000
  I   I161      1.0  0.20666  0.15737  0.43361  1.0000
  I   I162      1.0  0.69743  0.25785  0.43192  1.0000
  I   I163      1.0  0.24221  0.00010  0.36161  1.0000
  I   I164      1.0  0.73443  0.68627  0.82678  1.0000
  I   I165      1.0  0.75083  0.33664  0.43092  1.0000
  I   I166      1.0  0.33631  0.22712  0.91063  1.0000
  I   I167      1.0  0.38444  0.29736  0.12024  1.0000
  I   I168      1.0  0.56067  0.49694  0.51984  1.0000
  I   I169      1.0  0.79876  0.14709  0.57241  1.0000
  I   I170      1.0  0.79357  0.18689  0.62860  1.0000
  I   I171      1.0  0.82009  0.81695  0.92662  1.0000
  I   I172      1.0  0.10631  0.97104  0.90797  1.0000
  I   I173      1.0  0.03863  0.82764  0.68760  1.0000
  I   I174      1.0  0.27980  0.60724  0.50397  1.0000
  I   I175      1.0  0.93743  0.94330  0.57312  1.0000
  I   I176      1.0  0.26173  0.02452  0.74810  1.0000
  I   I177      1.0  0.62563  0.06955  0.91224  1.0000
  I   I178      1.0  0.63075  0.56603  0.71720  1.0000
  I   I179      1.0  0.94132  0.22474  0.59030  1.0000
  I   I180      1.0  0.83245  0.08067  0.94754  1.0000
  I   I181      1.0  0.51180  0.91844  0.59567  1.0000
  I   I182      1.0  0.53026  0.08711  0.69802  1.0000
  I   I183      1.0  0.45826  0.87705  0.61605  1.0000
  I   I184      1.0  0.81305  0.16079  0.91919  1.0000
  I   I185      1.0  0.04906  0.23016  0.03842  1.0000
  I   I186      1.0  0.16235  0.49279  0.27922  1.0000
  I   I187      1.0  0.73028  0.56078  0.73288  1.0000
  I   I188      1.0  0.98808  0.37517  0.46681  1.0000
  I   I189      1.0  0.47834  0.82099  0.63951  1.0000
  I   I190      1.0  0.76059  0.65488  0.90567  1.0000
  I   I191      1.0  0.15986  0.22899  0.34815  1.0000
  I   I192      1.0  0.11160  0.02710  0.52903  1.0000
  I   I193      1.0  0.09437  0.78516  0.67947  1.0000
  I   I194      1.0  0.08240  0.35870  0.63271  1.0000
  I   I195      1.0  0.12872  0.04055  0.39037  1.0000
  I   I196      1.0  0.40588  0.81222  0.93046  1.0000
  I   I197      1.0  0.66323  0.09977  0.37565  1.0000
  I   I198      1.0  0.21399  0.93637  0.27019  1.0000
  I   I199      1.0  0.27422  0.05136  0.62909  1.0000
  I   I200      1.0  0.63077  0.06038  0.61638  1.0000
  I   I201      1.0  0.11730  0.07873  0.60505  1.0000
  I   I202      1.0  0.89223  0.29891  0.35500  1.0000
  I   I203      1.0  0.18820  0.80901  0.93398  1.0000
  I   I204      1.0  0.24416  0.90188  0.10088  1.0000
  I   I205      1.0  0.51416  0.67030  0.46843  1.0000
  I   I206      1.0  0.38400  0.87088  0.98918  1.0000
  I   I207      1.0  0.92329  0.10046  0.84065  1.0000
  I   I208      1.0  0.89568  0.26788  0.44327  1.0000
  I   I209      1.0  0.24463  0.17632  0.44795  1.0000
  I   I210      1.0  0.66494  0.02580  0.94165  1.0000
  I   I211      1.0  0.37092  0.42972  0.65908  1.0000
  I   I212      1.0  0.06010  0.81537  0.99291  1.0000
  I   I213      1.0  0.18744  0.86065  0.82993  1.0000
  I   I214      1.0  0.58695  0.31743  0.28267  1.0000
  I   I215      1.0  0.35109  0.30560  0.31941  1.0000
  I   I216      1.0  0.42106  0.84324  0.77395  1.0000
  I   I217      1.0  0.81855  0.21646  0.66027  1.0000
  I   I218      1.0  0.76475  0.77222  0.36471  1.0000
  I   I219      1.0  0.43639  0.40470  0.48382  1.0000
  I   I220      1.0  0.92696  0.09908  0.93387  1.0000
  I   I221      1.0  0.07665  0.79266  0.57214  1.0000
  I   I222      1.0  0.08045  0.02525  0.89545  1.0000
  I   I223      1.0  0.91552  0.93794  0.50579  1.0000
  I   I224      1.0  0.24156  0.07345  0.72431  1.0000
  I   I225      1.0  0.69838  0.22063  0.04228  1.0000
  I   I226      1.0  0.66304  0.51466  0.70360  1.0000
  I   I227      1.0  0.64985  0.20218  0.83194  1.0000
  I   I228      1.0  0.89917  0.99656  0.98483  1.0000
  I   I229      1.0  0.67064  0.14877  0.34862  1.0000
  I   I230      1.0  0.60226  0.51337  0.59073  1.0000
  I   I231      1.0  0.94398  0.39273  0.29067  1.0000
  I   I232      1.0  0.39380  0.81321  0.05690  1.0000
  I   I233      1.0  0.54237  0.46854  0.10519  1.0000
  I   I234      1.0  0.20441  0.17587  0.33430  1.0000
  I   I235      1.0  0.47910  0.58114  0.03566  1.0000
  I   I236      1.0  0.37574  0.85892  0.81234  1.0000
  I   I237      1.0  0.56402  0.46087  0.90306  1.0000
  I   I238      1.0  0.01486  0.90657  0.92869  1.0000
  I   I239      1.0  0.33990  0.28011  0.88037  1.0000
  I   I240      1.0  0.68470  0.73041  0.56247  1.0000
  I   I241      1.0  0.54431  0.72619  0.13294  1.0000
  I   I242      1.0  0.63826  0.89104  0.58688  1.0000
  I   I243      1.0  0.72240  0.64355  0.73790  1.0000
  I   I244      1.0  0.78844  0.12656  0.97306  1.0000
  I   I245      1.0  0.75746  0.87149  0.35394  1.0000
  I   I246      1.0  0.23939  0.88200  0.33319  1.0000
  I   I247      1.0  0.51368  0.03346  0.59788  1.0000
  I   I248      1.0  0.76298  0.33175  0.51610  1.0000
  I   I249      1.0  0.01850  0.11172  0.67880  1.0000
  I   I250      1.0  0.96588  0.30545  0.44819  1.0000
  I   I251      1.0  0.94509  0.98406  0.88556  1.0000
  I   I252      1.0  0.10630  0.25673  0.59021  1.0000
  I   I253      1.0  0.49377  0.72461  0.44159  1.0000
  I   I254      1.0  0.43143  0.81252  0.01955  1.0000
  I   I255      1.0  0.47739  0.20465  0.55768  1.0000
  I   I256      1.0  0.83183  0.55717  0.12004  1.0000
  I   I257      1.0  0.47071  0.96958  0.55185  1.0000
  I   I258      1.0  0.64484  0.25277  0.36343  1.0000
  I   I259      1.0  0.19963  0.71879  0.73856  1.0000
  I   I260      1.0  0.77716  0.61399  0.82497  1.0000
  I   I261      1.0  0.72633  0.30274  0.45283  1.0000
  I   I262      1.0  0.54762  0.33957  0.20666  1.0000
  I   I263      1.0  0.51207  0.67255  0.02658  1.0000
  I   I264      1.0  0.87844  0.03807  0.93168  1.0000
  I   I265      1.0  0.84380  0.14002  0.61212  1.0000
  I   I266      1.0  0.13566  0.81941  0.88198  1.0000
  I   I267      1.0  0.45643  0.36323  0.56128  1.0000
  I   I268      1.0  0.44198  0.90533  0.33635  1.0000
  I   I269      1.0  0.06437  0.83143  0.77745  1.0000
  I   I270      1.0  0.42097  0.93780  0.44838  1.0000
  I   I271      1.0  0.90542  0.91916  0.60564  1.0000
  I   I272      1.0  0.33111  0.32288  0.14370  1.0000
  I   I273      1.0  0.65022  0.25531  0.98615  1.0000
  I   I274      1.0  0.54021  0.51619  0.04000  1.0000
  I   I275      1.0  0.81873  0.78435  0.03578  1.0000
  I   I276      1.0  0.79587  0.06276  0.96201  1.0000
  I   I277      1.0  0.67270  0.58097  0.68945  1.0000
  I   I278      1.0  0.55273  0.55648  0.60327  1.0000
  I   I279      1.0  0.01211  0.35763  0.57826  1.0000
  I   I280      1.0  0.39546  0.73519  0.23368  1.0000
  I   I281      1.0  0.49762  0.50862  0.07915  1.0000
  I   I282      1.0  0.16310  0.45204  0.17819  1.0000
  I   I283      1.0  0.50698  0.54565  0.93505  1.0000
  I   I284      1.0  0.61261  0.51553  0.49431  1.0000
  I   I285      1.0  0.42939  0.87205  0.70507  1.0000
  I   I286      1.0  0.02569  0.96260  0.98492  1.0000
  I   I287      1.0  0.59768  0.27511  0.61797  1.0000
  I   I288      1.0  0.67998  0.77363  0.49779  1.0000
  I   I289      1.0  0.44769  0.59083  0.95043  1.0000
  I   I290      1.0  0.22773  0.20240  0.33245  1.0000
  I   I291      1.0  0.64798  0.87890  0.46656  1.0000
  I   I292      1.0  0.34527  0.72387  0.21394  1.0000
  I   I293      1.0  0.70454  0.93314  0.34078  1.0000
  I   I294      1.0  0.63299  0.87714  0.94483  1.0000
  I   I295      1.0  0.55697  0.00991  0.67378  1.0000
  I   I296      1.0  0.65697  0.08689  0.64148  1.0000
  I   I297      1.0  0.08750  0.07738  0.69463  1.0000
  I   I298      1.0  0.70030  0.11039  0.42558  1.0000
  I   I299      1.0  0.86430  0.33442  0.43812  1.0000
  I   I300      1.0  0.40777  0.85879  0.86946  1.0000
  I   I301      1.0  0.52441  0.19490  0.50266  1.0000
  I   I302      1.0  0.49262  0.71264  0.35659  1.0000
  I   I303      1.0  0.80142  0.56114  0.02371  1.0000
  I   I304      1.0  0.62857  0.28186  0.43417  1.0000
  I   I305      1.0  0.91578  0.29287  0.49178  1.0000
  I   I306      1.0  0.51454  0.04645  0.70280  1.0000
  I   I307      1.0  0.26155  0.00372  0.25328  1.0000
  I   I308      1.0  0.04167  0.36708  0.73109  1.0000
  I   I309      1.0  0.81710  0.28710  0.54806  1.0000
  I   I310      1.0  0.88367  0.87166  0.23495  1.0000
  I   I311      1.0  0.52914  0.61784  0.04528  1.0000
  I   I312      1.0  0.57178  0.31687  0.68925  1.0000
  I   I313      1.0  0.49046  0.38547  0.50941  1.0000
  I   I314      1.0  0.82325  0.10881  0.63791  1.0000
  I   I315      1.0  0.79670  0.75834  0.26529  1.0000
  I   I316      1.0  0.11789  0.00403  0.80014  1.0000
  I   I317      1.0  0.36822  0.95150  0.39284  1.0000
  I   I318      1.0  0.05182  0.77295  0.65131  1.0000
  I   I319      1.0  0.62131  0.02141  0.97007  1.0000
  I   I320      1.0  0.35881  0.84603  0.96556  1.0000
  I   I321      1.0  0.77178  0.57377  0.22933  1.0000
  I   I322      1.0  0.87068  0.55812  0.66516  1.0000
  I   I323      1.0  0.94528  0.18916  0.66863  1.0000
  I   I324      1.0  0.83530  0.03334  0.90688  1.0000
  I   I325      1.0  0.50454  0.97793  0.61790  1.0000
  I   I326      1.0  0.55717  0.04504  0.59547  1.0000
  I   I327      1.0  0.99683  0.21151  0.64583  1.0000
  I   I328      1.0  0.90505  0.41698  0.41838  1.0000
  I   I329      1.0  0.98936  0.24966  0.00372  1.0000
  I   I330      1.0  0.19977  0.21125  0.43134  1.0000
  I   I331      1.0  0.41777  0.85377  0.62274  1.0000
  I   I332      1.0  0.19185  0.24891  0.38369  1.0000
  I   I333      1.0  0.84075  0.53028  0.61344  1.0000
  I   I334      1.0  0.74077  0.74816  0.50312  1.0000
  I   I335      1.0  0.76939  0.58931  0.74361  1.0000
  I   I336      1.0  0.29717  0.25659  0.87207  1.0000
  I   I337      1.0  0.91350  0.87249  0.12005  1.0000
  I   I338      1.0  0.03039  0.39599  0.85963  1.0000
  I   I339      1.0  0.62108  0.86748  0.40530  1.0000
  I   I340      1.0  0.94539  0.64182  0.45205  1.0000
  I   I341      1.0  0.83411  0.96132  0.77197  1.0000
  I   I342      1.0  0.61150  0.92425  0.84799  1.0000
  I   I343      1.0  0.70686  0.59028  0.24902  1.0000
  I   I344      1.0  0.64749  0.07217  0.52580  1.0000
  I   I345      1.0  0.10072  0.13082  0.61428  1.0000
  I   I346      1.0  0.37951  0.39856  0.74242  1.0000
  I   I347      1.0  0.95359  0.26322  0.39498  1.0000
  I   I348      1.0  0.15460  0.24674  0.50008  1.0000
  I   I349      1.0  0.46691  0.23607  0.45863  1.0000
  I   I350      1.0  0.54201  0.70957  0.44029  1.0000
  I   I351      1.0  0.42728  0.75982  0.99437  1.0000
  I   I352      1.0  0.60447  0.24917  0.45865  1.0000
  I   I353      1.0  0.84712  0.50616  0.08059  1.0000
  I   I354      1.0  0.55708  0.10183  0.61657  1.0000
  I   I355      1.0  0.25861  0.03650  0.35496  1.0000
  I   I356      1.0  0.72325  0.63968  0.83632  1.0000
  I   I357      1.0  0.20696  0.85654  0.92480  1.0000
  I   I358      1.0  0.62030  0.46484  0.53611  1.0000
  I   I359      1.0  0.52704  0.64680  0.13433  1.0000
  I   I360      1.0  0.59783  0.32881  0.60622  1.0000
  I   I361      1.0  0.77907  0.82756  0.00111  1.0000
  I   I362      1.0  0.82264  0.15244  0.69749  1.0000
  I   I363      1.0  0.22976  0.81065  0.86847  1.0000
  I   I364      1.0  0.24927  0.62837  0.40794  1.0000
  I   I365      1.0  0.91177  0.15317  0.87210  1.0000
  I   I366      1.0  0.02693  0.82722  0.60156  1.0000
  I   I367      1.0  0.59192  0.03729  0.90001  1.0000
  I   I368      1.0  0.92663  0.69765  0.44309  1.0000
  I   I369      1.0  0.37731  0.32739  0.24146  1.0000
  I   I370      1.0  0.53424  0.52962  0.14053  1.0000
  I   I371      1.0  0.90570  0.23086  0.71981  1.0000
  I   I372      1.0  0.60755  0.47188  0.43970  1.0000
  I   I373      1.0  0.45247  0.96211  0.63720  1.0000
  I   I374      1.0  0.59209  0.52465  0.69358  1.0000
  I   I375      1.0  0.95416  0.22598  0.70727  1.0000
  I   I376      1.0  0.56727  0.64641  0.06546  1.0000
  I   I377      1.0  0.99045  0.29120  0.05863  1.0000
  I   I378      1.0  0.17913  0.49054  0.17019  1.0000
  I   I379      1.0  0.54628  0.42769  0.99101  1.0000
  I   I380      1.0  0.66479  0.58926  0.76814  1.0000
  I   I381      1.0  0.24651  0.85556  0.01819  1.0000
  I   I382      1.0  0.64440  0.78067  0.57775  1.0000
  I   I383      1.0  0.00697  0.95700  0.87980  1.0000
  I   I384      1.0  0.50072  0.34837  0.70438  1.0000
