data_image0
_chemical_formula_structural       Ti96I384
_chemical_formula_sum              "Ti96 I384"
_cell_length_a       66.3381
_cell_length_b       66.2115
_cell_length_c       32.3829
_cell_angle_alpha    88.7757
_cell_angle_beta     88.7757
_cell_angle_gamma    62.1586

_space_group_name_H-M_alt    "P 1"
_space_group_IT_number       1

loop_
  _space_group_symop_operation_xyz
  'x, y, z'

loop_
  _atom_site_type_symbol
  _atom_site_label
  _atom_site_symmetry_multiplicity
  _atom_site_fract_x
  _atom_site_fract_y
  _atom_site_fract_z
  _atom_site_occupancy
  Ti  Ti1       1.0  0.43585  0.75758  0.45858  1.0000
  Ti  Ti2       1.0  0.55412  0.99847  0.01353  1.0000
  Ti  Ti3       1.0  0.72709  0.90497  0.36784  1.0000
  Ti  Ti4       1.0  0.05826  0.97727  0.82066  1.0000
  Ti  Ti5       1.0  0.77166  0.77549  0.64704  1.0000
  Ti  Ti6       1.0  0.29459  0.42972  0.56888  1.0000
  Ti  Ti7       1.0  0.84674  0.22254  0.33772  1.0000
  Ti  Ti8       1.0  0.41719  0.12166  0.86823  1.0000
  Ti  Ti9       1.0  0.26313  0.91633  0.83575  1.0000
  Ti  Ti10      1.0  0.71913  0.98437  0.11052  1.0000
  Ti  Ti11      1.0  0.99475  0.30607  0.25350  1.0000
  Ti  Ti12      1.0  0.14913  0.58871  0.45269  1.0000
  Ti  Ti13      1.0  0.13486  0.07600  0.75163  1.0000
  Ti  Ti14      1.0  0.08545  0.02641  0.54145  1.0000
  Ti  Ti15      1.0  0.58343  0.13993  0.72880  1.0000
  Ti  Ti16      1.0  0.72780  0.01745  0.00862  1.0000
  Ti  Ti17      1.0  0.31974  0.07949  0.40487  1.0000
  Ti  Ti18      1.0  0.09710  0.74075  0.29293  1.0000
  Ti  Ti19      1.0  0.54237  0.58147  0.25383  1.0000
  Ti  Ti20      1.0  0.35185  0.87490  0.63245  1.0000
  Ti  Ti21      1.0  0.31386  0.04913  0.87216  1.0000
  Ti  Ti22      1.0  0.68410  0.54642  0.07801  1.0000
  Ti  Ti23      1.0  0.53322  0.06959  0.63137  1.0000
  Ti  Ti24      1.0  0.19223  0.76675  0.48201  1.0000
  Ti  Ti25      1.0  0.66082  0.76411  0.83964  1.0000
  Ti  Ti26      1.0  0.40527  0.89857  0.19264  1.0000
  Ti  Ti27      1.0  0.83300  0.92844  0.48000  1.0000
  Ti  Ti28      1.0  0.66947  0.49914  0.72082  1.0000
  Ti  Ti29      1.0  0.88623  0.92995  0.80060  1.0000
  Ti  Ti30      1.0  0.06399  0.21466  0.55162  1.0000
  Ti  Ti31      1.0  0.95452  0.05148  0.15925  1.0000
  Ti  Ti32      1.0  0.68526  0.34911  0.15718  1.0000
  Ti  Ti33      1.0  0.15184  0.86079  0.17265  1.0000
  Ti  Ti34      1.0  0.53519  0.42836  0.02687  1.0000
  Ti  Ti35      1.0  0.68068  0.55752  0.35985  1.0000
  Ti  Ti36      1.0  0.75526  0.82939  0.00811  1.0000
  Ti  Ti37      1.0  0.00794  0.50378  0.40847  1.0000
  Ti  Ti38      1.0  0.57273  0.30031  0.05488  1.0000
  Ti  Ti39      1.0  0.98275  0.69231  0.04046  1.0000
  Ti  Ti40      1.0  0.26582  0.16097  0.95039  1.0000
  Ti  Ti41      1.0  0.51974  0.71833  0.76678  1.0000
  Ti  Ti42      1.0  0.80653  0.48278  0.09434  1.0000
  Ti  Ti43      1.0  0.63663  0.18886  0.29571  1.0000
  Ti  Ti44      1.0  0.82961  0.48571  0.70489  1.0000
  Ti  Ti45      1.0  0.31025  0.63226  0.44558  1.0000
  Ti  Ti46      1.0  0.37359  0.48448  0.43970  1.0000
  Ti  Ti47      1.0  0.18234  0.48581  0.14846  1.0000
  Ti  Ti48      1.0  0.54964  0.43687  0.65089  1.0000
  Ti  Ti49      1.0  0.67542  0.68669  0.59152  1.0000
  Ti  Ti50      1.0  0.05661  0.22953  0.85976  1.0000
  Ti  Ti51      1.0  0.53767  0.01546  0.15304  1.0000
  Ti  Ti52      1.0  0.04750  0.03055  0.90650  1.0000
  Ti  Ti53      1.0  0.42014  0.63665  0.82193  1.0000
  Ti  Ti54      1.0  0.34670  0.42119  0.61140  1.0000
  Ti  Ti55      1.0  0.89091  0.17293  0.32748  1.0000
  Ti  Ti56      1.0  0.45461  0.36109  0.75124  1.0000
  Ti  Ti57      1.0  0.29705  0.85961  0.86130  1.0000
  Ti  Ti58      1.0  0.67767  0.16381  0.41746  1.0000
  Ti  Ti59      1.0  0.23202  0.22093  0.71667  1.0000
  Ti  Ti60      1.0  0.10292  0.56598  0.43457  1.0000
  Ti  Ti61      1.0  0.64913  0.09191  0.68451  1.0000
  Ti  Ti62      1.0  0.15848  0.10044  0.67050  1.0000
  Ti  Ti63      1.0  0.01680  0.04943  0.55651  1.0000
  Ti  Ti64      1.0  0.13502  0.74111  0.24486  1.0000
  Ti  Ti65      1.0  0.06233  0.31553  0.66729  1.0000
  Ti  Ti66      1.0  0.46934  0.35596  0.20097  1.0000
  Ti  Ti67      1.0  0.51244  0.54862  0.19555  1.0000
  Ti  Ti68      1.0  0.04820  0.37104  0.11711  1.0000
  Ti  Ti69      1.0  0.37837  0.98840  0.87552  1.0000
  Ti  Ti70      1.0  0.65914  0.58798  0.99674  1.0000
  Ti  Ti71      1.0  0.49233  0.03706  0.62298  1.0000
  Ti  Ti72      1.0  0.15169  0.04950  0.19558  1.0000
  Ti  Ti73      1.0  0.84016  0.99730  0.48227  1.0000
  Ti  Ti74      1.0  0.62193  0.81970  0.85629  1.0000
  Ti  Ti75      1.0  0.37405  0.87601  0.22542  1.0000
  Ti  Ti76      1.0  0.09061  0.18118  0.46487  1.0000
  Ti  Ti77      1.0  0.72982  0.45018  0.66126  1.0000
  Ti  Ti78      1.0  0.86517  0.97506  0.75531  1.0000
  Ti  Ti79      1.0  0.53503  0.45028  0.21706  1.0000
  Ti  Ti80      1.0  0.79661  0.10166  0.69674  1.0000
  Ti  Ti81      1.0  0.75635  0.33356  0.23179  1.0000
  Ti  Ti82      1.0  0.47547  0.48571  0.98126  1.0000
  Ti  Ti83      1.0  0.69990  0.50062  0.29933  1.0000
  Ti  Ti84      1.0  0.77955  0.78875  0.90659  1.0000
  Ti  Ti85      1.0  0.04404  0.48934  0.29689  1.0000
  Ti  Ti86      1.0  0.54719  0.31014  0.16734  1.0000
  Ti  Ti87      1.0  0.98744  0.65703  0.11159  1.0000
  Ti  Ti88      1.0  0.61798  0.77423  0.36027  1.0000
  Ti  Ti89      1.0  0.55900  0.66585  0.69575  1.0000
  Ti  Ti90      1.0  0.80798  0.43388  0.05964  1.0000
  Ti  Ti91      1.0  0.30521  0.62162  0.31267  1.0000
  Ti  Ti92      1.0  0.97941  0.84572  0.96729  1.0000
  Ti  Ti93      1.0  0.88963  0.44158  0.74804  1.0000
  Ti  Ti94      1.0  0.54753  0.37016  0.62492  1.0000
  Ti  Ti95      1.0  0.39451  0.49712  0.36948  1.0000
  Ti  Ti96      1.0  0.16496  0.54046  0.08162  1.0000
  I   I1        1.0  0.19523  0.53403  0.01621  1.0000
  I   I2        1.0  0.58128  0.98652  0.08235  1.0000
  I   I3        1.0  0.63069  0.69884  0.58482  1.0000
  I   I4        1.0  0.45395  0.63967  0.77773  1.0000
  I   I5        1.0  0.25729  0.42407  0.56318  1.0000
  I   I6        1.0  0.38451  0.40005  0.57316  1.0000
  I   I7        1.0  0.43480  0.14438  0.82626  1.0000
  I   I8        1.0  0.43972  0.40480  0.74779  1.0000
  I   I9        1.0  0.26910  0.89499  0.92203  1.0000
  I   I10       1.0  0.75376  0.98086  0.05255  1.0000
  I   I11       1.0  0.97701  0.34606  0.21189  1.0000
  I   I12       1.0  0.73889  0.76950  0.68297  1.0000
  I   I13       1.0  0.18623  0.05976  0.69854  1.0000
  I   I14       1.0  0.05124  0.00343  0.53518  1.0000
  I   I15       1.0  0.55967  0.18358  0.70986  1.0000
  I   I16       1.0  0.72101  0.05069  0.06352  1.0000
  I   I17       1.0  0.46637  0.37571  0.12995  1.0000
  I   I18       1.0  0.13441  0.74205  0.33407  1.0000
  I   I19       1.0  0.34313  0.84659  0.67834  1.0000
  I   I20       1.0  0.02814  0.27817  0.21098  1.0000
  I   I21       1.0  0.28383  0.06754  0.92997  1.0000
  I   I22       1.0  0.56329  0.02369  0.62415  1.0000
  I   I23       1.0  0.44702  0.06059  0.62804  1.0000
  I   I24       1.0  0.64859  0.59193  0.92242  1.0000
  I   I25       1.0  0.61822  0.79792  0.92795  1.0000
  I   I26       1.0  0.42056  0.85970  0.25265  1.0000
  I   I27       1.0  0.85502  0.95164  0.52708  1.0000
  I   I28       1.0  0.67637  0.46999  0.65676  1.0000
  I   I29       1.0  0.85361  0.01270  0.80513  1.0000
  I   I30       1.0  0.11710  0.15968  0.52840  1.0000
  I   I31       1.0  0.81462  0.09692  0.62373  1.0000
  I   I32       1.0  0.79409  0.32674  0.19885  1.0000
  I   I33       1.0  0.54083  0.46281  0.14540  1.0000
  I   I34       1.0  0.74191  0.45758  0.29375  1.0000
  I   I35       1.0  0.78721  0.83956  0.03672  1.0000
  I   I36       1.0  0.57885  0.42265  0.01912  1.0000
  I   I37       1.0  0.03698  0.52169  0.23958  1.0000
  I   I38       1.0  0.02450  0.64286  0.06342  1.0000
  I   I39       1.0  0.99824  0.52866  0.33305  1.0000
  I   I40       1.0  0.59676  0.62881  0.70807  1.0000
  I   I41       1.0  0.83594  0.39323  0.03350  1.0000
  I   I42       1.0  0.26285  0.13774  0.88896  1.0000
  I   I43       1.0  0.70696  0.17752  0.43864  1.0000
  I   I44       1.0  0.88675  0.40380  0.76699  1.0000
  I   I45       1.0  0.27927  0.65637  0.36348  1.0000
  I   I46       1.0  0.38901  0.51419  0.29347  1.0000
  I   I47       1.0  0.18055  0.50399  0.21871  1.0000
  I   I48       1.0  0.52086  0.46623  0.70378  1.0000
  I   I49       1.0  0.68863  0.64637  0.61415  1.0000
  I   I50       1.0  0.52725  0.98019  0.03125  1.0000
  I   I51       1.0  0.50671  0.03755  0.08657  1.0000
  I   I52       1.0  0.08080  0.99822  0.85776  1.0000
  I   I53       1.0  0.38488  0.63358  0.80086  1.0000
  I   I54       1.0  0.34703  0.39462  0.68004  1.0000
  I   I55       1.0  0.83749  0.26120  0.30208  1.0000
  I   I56       1.0  0.37589  0.14041  0.88295  1.0000
  I   I57       1.0  0.23187  0.90827  0.81314  1.0000
  I   I58       1.0  0.74843  0.94821  0.16218  1.0000
  I   I59       1.0  0.24541  0.18563  0.66616  1.0000
  I   I60       1.0  0.12028  0.53427  0.37467  1.0000
  I   I61       1.0  0.18368  0.11955  0.70090  1.0000
  I   I62       1.0  0.14916  0.03198  0.76334  1.0000
  I   I63       1.0  0.11525  0.00363  0.59723  1.0000
  I   I64       1.0  0.70144  0.00475  0.95293  1.0000
  I   I65       1.0  0.06503  0.28998  0.60491  1.0000
  I   I66       1.0  0.44932  0.39662  0.23686  1.0000
  I   I67       1.0  0.49692  0.60486  0.23481  1.0000
  I   I68       1.0  0.34013  0.91438  0.65893  1.0000
  I   I69       1.0  0.40306  0.96264  0.81620  1.0000
  I   I70       1.0  0.69969  0.54487  0.00617  1.0000
  I   I71       1.0  0.56791  0.07099  0.58950  1.0000
  I   I72       1.0  0.15298  0.03578  0.12258  1.0000
  I   I73       1.0  0.86830  0.01298  0.47835  1.0000
  I   I74       1.0  0.40783  0.85675  0.15572  1.0000
  I   I75       1.0  0.35320  0.91383  0.17963  1.0000
  I   I76       1.0  0.68526  0.47058  0.78199  1.0000
  I   I77       1.0  0.76097  0.44107  0.61072  1.0000
  I   I78       1.0  0.85313  0.99940  0.68673  1.0000
  I   I79       1.0  0.11301  0.87486  0.13725  1.0000
  I   I80       1.0  0.97001  0.05975  0.09090  1.0000
  I   I81       1.0  0.76278  0.29341  0.23676  1.0000
  I   I82       1.0  0.44533  0.48239  0.92591  1.0000
  I   I83       1.0  0.65238  0.54381  0.31897  1.0000
  I   I84       1.0  0.78420  0.82701  0.93586  1.0000
  I   I85       1.0  0.02167  0.46770  0.34418  1.0000
  I   I86       1.0  0.52569  0.32474  0.09093  1.0000
  I   I87       1.0  0.93688  0.72631  0.04448  1.0000
  I   I88       1.0  0.26927  0.19855  0.93310  1.0000
  I   I89       1.0  0.53506  0.64392  0.70389  1.0000
  I   I90       1.0  0.77023  0.43518  0.02921  1.0000
  I   I91       1.0  0.31314  0.64662  0.25667  1.0000
  I   I92       1.0  0.00325  0.83379  0.03061  1.0000
  I   I93       1.0  0.82891  0.47726  0.78411  1.0000
  I   I94       1.0  0.57824  0.41668  0.70498  1.0000
  I   I95       1.0  0.33267  0.52081  0.44298  1.0000
  I   I96       1.0  0.13696  0.56438  0.01563  1.0000
  I   I97       1.0  0.70028  0.88765  0.35337  1.0000
  I   I98       1.0  0.46864  0.75423  0.40824  1.0000
  I   I99       1.0  0.58032  0.98130  0.95126  1.0000
  I   I100      1.0  0.08566  0.93991  0.87725  1.0000
  I   I101      1.0  0.07622  0.02723  0.96448  1.0000
  I   I102      1.0  0.80647  0.73608  0.63458  1.0000
  I   I103      1.0  0.88879  0.13585  0.29354  1.0000
  I   I104      1.0  0.80810  0.23109  0.37974  1.0000
  I   I105      1.0  0.32622  0.83606  0.91985  1.0000
  I   I106      1.0  0.11067  0.59820  0.51987  1.0000
  I   I107      1.0  0.69929  0.96348  0.08384  1.0000
  I   I108      1.0  0.14670  0.62864  0.47592  1.0000
  I   I109      1.0  0.62179  0.14746  0.69744  1.0000
  I   I110      1.0  0.17533  0.09718  0.59387  1.0000
  I   I111      1.0  0.10652  0.00247  0.47562  1.0000
  I   I112      1.0  0.11470  0.69501  0.31904  1.0000
  I   I113      1.0  0.09757  0.32006  0.67697  1.0000
  I   I114      1.0  0.35785  0.06590  0.37389  1.0000
  I   I115      1.0  0.55551  0.55598  0.17831  1.0000
  I   I116      1.0  0.52427  0.54484  0.27048  1.0000
  I   I117      1.0  0.08523  0.37035  0.14114  1.0000
  I   I118      1.0  0.61967  0.62457  0.02809  1.0000
  I   I119      1.0  0.68466  0.61109  0.98486  1.0000
  I   I120      1.0  0.18695  0.04124  0.24236  1.0000
  I   I121      1.0  0.83459  0.89372  0.51430  1.0000
  I   I122      1.0  0.62791  0.75541  0.81911  1.0000
  I   I123      1.0  0.39177  0.92914  0.25511  1.0000
  I   I124      1.0  0.08421  0.14946  0.44214  1.0000
  I   I125      1.0  0.66511  0.53200  0.76158  1.0000
  I   I126      1.0  0.89667  0.93589  0.87793  1.0000
  I   I127      1.0  0.17081  0.81849  0.15619  1.0000
  I   I128      1.0  0.78380  0.14710  0.68981  1.0000
  I   I129      1.0  0.76058  0.34692  0.29927  1.0000
  I   I130      1.0  0.73354  0.81253  0.94641  1.0000
  I   I131      1.0  0.48791  0.44087  0.01281  1.0000
  I   I132      1.0  0.70754  0.51499  0.22990  1.0000
  I   I133      1.0  0.00475  0.71416  0.03636  1.0000
  I   I134      1.0  0.61714  0.28151  0.05232  1.0000
  I   I135      1.0  0.58075  0.27023  0.14184  1.0000
  I   I136      1.0  0.77495  0.49927  0.14872  1.0000
  I   I137      1.0  0.61419  0.78945  0.43177  1.0000
  I   I138      1.0  0.49428  0.71404  0.82869  1.0000
  I   I139      1.0  0.34418  0.62263  0.49269  1.0000
  I   I140      1.0  0.99479  0.85761  0.90348  1.0000
  I   I141      1.0  0.86807  0.48907  0.72017  1.0000
  I   I142      1.0  0.56356  0.45750  0.59591  1.0000
  I   I143      1.0  0.38925  0.52965  0.42956  1.0000
  I   I144      1.0  0.16367  0.50029  0.07292  1.0000
  I   I145      1.0  0.40225  0.76111  0.41198  1.0000
  I   I146      1.0  0.54074  0.04434  0.99965  1.0000
  I   I147      1.0  0.71898  0.93375  0.30733  1.0000
  I   I148      1.0  0.02285  0.01957  0.82841  1.0000
  I   I149      1.0  0.78651  0.79411  0.70456  1.0000
  I   I150      1.0  0.27933  0.45291  0.49697  1.0000
  I   I151      1.0  0.92558  0.14777  0.37210  1.0000
  I   I152      1.0  0.42654  0.08519  0.81889  1.0000
  I   I153      1.0  0.29319  0.86434  0.77788  1.0000
  I   I154      1.0  0.64075  0.17588  0.46436  1.0000
  I   I155      1.0  0.01426  0.31546  0.31726  1.0000
  I   I156      1.0  0.05811  0.57918  0.43434  1.0000
  I   I157      1.0  0.56895  0.14003  0.80823  1.0000
  I   I158      1.0  0.04366  0.04269  0.61759  1.0000
  I   I159      1.0  0.65430  0.11047  0.61098  1.0000
  I   I160      1.0  0.13642  0.70970  0.19491  1.0000
  I   I161      1.0  0.30666  0.08985  0.48886  1.0000
  I   I162      1.0  0.17708  0.71310  0.27468  1.0000
  I   I163      1.0  0.57014  0.55049  0.30711  1.0000
  I   I164      1.0  0.06280  0.32621  0.12484  1.0000
  I   I165      1.0  0.32945  0.07839  0.88782  1.0000
  I   I166      1.0  0.70307  0.50208  0.09851  1.0000
  I   I167      1.0  0.55467  0.07063  0.70071  1.0000
  I   I168      1.0  0.15636  0.78168  0.43167  1.0000
  I   I169      1.0  0.57981  0.83406  0.82115  1.0000
  I   I170      1.0  0.69838  0.73163  0.81041  1.0000
  I   I171      1.0  0.80663  0.97863  0.49462  1.0000
  I   I172      1.0  0.05761  0.22934  0.46247  1.0000
  I   I173      1.0  0.88724  0.92988  0.71015  1.0000
  I   I174      1.0  0.02052  0.24460  0.56142  1.0000
  I   I175      1.0  0.96424  0.01022  0.14075  1.0000
  I   I176      1.0  0.67943  0.34011  0.08239  1.0000
  I   I177      1.0  0.55121  0.47327  0.26230  1.0000
  I   I178      1.0  0.44343  0.51250  0.03244  1.0000
  I   I179      1.0  0.68108  0.47724  0.27389  1.0000
  I   I180      1.0  0.81948  0.76610  0.87285  1.0000
  I   I181      1.0  0.07250  0.45077  0.26315  1.0000
  I   I182      1.0  0.50479  0.30884  0.19380  1.0000
  I   I183      1.0  0.99107  0.64281  0.19000  1.0000
  I   I184      1.0  0.59226  0.80946  0.31394  1.0000
  I   I185      1.0  0.55363  0.67787  0.78218  1.0000
  I   I186      1.0  0.78085  0.48266  0.02501  1.0000
  I   I187      1.0  0.96575  0.81633  0.94303  1.0000
  I   I188      1.0  0.79535  0.47883  0.69322  1.0000
  I   I189      1.0  0.33782  0.61717  0.37051  1.0000
  I   I190      1.0  0.43996  0.47385  0.33784  1.0000
  I   I191      1.0  0.02170  0.23164  0.89843  1.0000
  I   I192      1.0  0.54781  0.34406  0.68840  1.0000
  I   I193      1.0  0.42672  0.78952  0.51578  1.0000
  I   I194      1.0  0.04886  0.23697  0.77262  1.0000
  I   I195      1.0  0.76470  0.87276  0.33979  1.0000
  I   I196      1.0  0.08353  0.96800  0.75840  1.0000
  I   I197      1.0  0.65837  0.20925  0.33774  1.0000
  I   I198      1.0  0.33097  0.43922  0.53563  1.0000
  I   I199      1.0  0.90617  0.19117  0.27166  1.0000
  I   I200      1.0  0.45979  0.33000  0.69565  1.0000
  I   I201      1.0  0.27853  0.93218  0.77327  1.0000
  I   I202      1.0  0.18787  0.23842  0.72500  1.0000
  I   I203      1.0  0.38163  0.95072  0.90823  1.0000
  I   I204      1.0  0.19142  0.57435  0.42886  1.0000
  I   I205      1.0  0.13115  0.07652  0.66222  1.0000
  I   I206      1.0  0.98605  0.04902  0.60122  1.0000
  I   I207      1.0  0.66936  0.04612  0.68999  1.0000
  I   I208      1.0  0.74935  0.02966  0.95328  1.0000
  I   I209      1.0  0.30937  0.04670  0.40281  1.0000
  I   I210      1.0  0.07121  0.76744  0.35070  1.0000
  I   I211      1.0  0.49407  0.57978  0.12900  1.0000
  I   I212      1.0  0.32941  0.87883  0.56246  1.0000
  I   I213      1.0  0.41160  0.98891  0.91200  1.0000
  I   I214      1.0  0.70970  0.56183  0.11640  1.0000
  I   I215      1.0  0.49789  0.07038  0.57339  1.0000
  I   I216      1.0  0.20252  0.77885  0.54978  1.0000
  I   I217      1.0  0.64633  0.79937  0.77997  1.0000
  I   I218      1.0  0.35828  0.89110  0.29861  1.0000
  I   I219      1.0  0.82867  0.00832  0.40801  1.0000
  I   I220      1.0  0.62642  0.50969  0.72990  1.0000
  I   I221      1.0  0.91733  0.88475  0.79851  1.0000
  I   I222      1.0  0.05528  0.17890  0.53357  1.0000
  I   I223      1.0  0.97863  0.05637  0.21791  1.0000
  I   I224      1.0  0.67042  0.32211  0.19086  1.0000
  I   I225      1.0  0.18183  0.87808  0.16347  1.0000
  I   I226      1.0  0.48892  0.51064  0.93472  1.0000
  I   I227      1.0  0.72062  0.55105  0.39268  1.0000
  I   I228      1.0  0.74132  0.82408  0.07595  1.0000
  I   I229      1.0  0.98054  0.50793  0.46868  1.0000
  I   I230      1.0  0.57365  0.26212  0.03032  1.0000
  I   I231      1.0  0.99026  0.61463  0.10110  1.0000
  I   I232      1.0  0.04675  0.05502  0.49177  1.0000
  I   I233      1.0  0.52430  0.75613  0.75619  1.0000
  I   I234      1.0  0.84356  0.44643  0.06849  1.0000
  I   I235      1.0  0.64520  0.17468  0.22218  1.0000
  I   I236      1.0  0.89791  0.44789  0.82583  1.0000
  I   I237      1.0  0.33799  0.57779  0.30435  1.0000
  I   I238      1.0  0.36994  0.49311  0.52734  1.0000
  I   I239      1.0  0.14457  0.58491  0.11526  1.0000
  I   I240      1.0  0.57796  0.39130  0.60079  1.0000
  I   I241      1.0  0.70141  0.67190  0.52286  1.0000
  I   I242      1.0  0.57679  0.99759  0.19539  1.0000
  I   I243      1.0  0.72520  0.91556  0.44605  1.0000
  I   I244      1.0  0.03583  0.07309  0.87759  1.0000
  I   I245      1.0  0.44318  0.59602  0.85967  1.0000
  I   I246      1.0  0.35272  0.45282  0.64407  1.0000
  I   I247      1.0  0.85119  0.19527  0.28038  1.0000
  I   I248      1.0  0.43482  0.11610  0.94439  1.0000
  I   I249      1.0  0.28234  0.82997  0.85333  1.0000
  I   I250      1.0  0.25216  0.23223  0.77512  1.0000
  I   I251      1.0  0.98230  0.27562  0.28752  1.0000
  I   I252      1.0  0.10510  0.54840  0.50479  1.0000
  I   I253      1.0  0.15004  0.08804  0.81054  1.0000
  I   I254      1.0  0.98783  0.08801  0.51759  1.0000
  I   I255      1.0  0.59403  0.11694  0.66047  1.0000
  I   I256      1.0  0.04218  0.31255  0.73552  1.0000
  I   I257      1.0  0.28962  0.10403  0.35244  1.0000
  I   I258      1.0  0.09400  0.77996  0.23134  1.0000
  I   I259      1.0  0.54272  0.51405  0.15611  1.0000
  I   I260      1.0  0.03921  0.38147  0.03883  1.0000
  I   I261      1.0  0.30269  0.02892  0.81434  1.0000
  I   I262      1.0  0.64439  0.56792  0.13562  1.0000
  I   I263      1.0  0.50339  0.01780  0.55300  1.0000
  I   I264      1.0  0.22047  0.77175  0.43062  1.0000
  I   I265      1.0  0.65832  0.73996  0.91087  1.0000
  I   I266      1.0  0.38949  0.92152  0.12190  1.0000
  I   I267      1.0  0.80549  0.03250  0.51058  1.0000
  I   I268      1.0  0.75750  0.44911  0.72264  1.0000
  I   I269      1.0  0.83480  0.96266  0.78144  1.0000
  I   I270      1.0  0.11454  0.18400  0.40725  1.0000
  I   I271      1.0  0.91409  0.09273  0.14956  1.0000
  I   I272      1.0  0.73120  0.33768  0.15039  1.0000
  I   I273      1.0  0.14201  0.87152  0.25217  1.0000
  I   I274      1.0  0.51568  0.47379  0.03808  1.0000
  I   I275      1.0  0.65012  0.57793  0.41904  1.0000
  I   I276      1.0  0.76341  0.78577  0.83391  1.0000
  I   I277      1.0  0.06815  0.49762  0.34912  1.0000
  I   I278      1.0  0.56831  0.33209  0.12498  1.0000
  I   I279      1.0  0.98495  0.68030  0.96232  1.0000
  I   I280      1.0  0.66102  0.74772  0.34249  1.0000
  I   I281      1.0  0.56668  0.65894  0.61479  1.0000
  I   I282      1.0  0.82591  0.46641  0.17348  1.0000
  I   I283      1.0  0.67754  0.15793  0.32957  1.0000
  I   I284      1.0  0.92684  0.43559  0.70344  1.0000
  I   I285      1.0  0.28004  0.66899  0.47712  1.0000
  I   I286      1.0  0.41580  0.44763  0.42533  1.0000
  I   I287      1.0  0.22463  0.45486  0.13528  1.0000
  I   I288      1.0  0.50599  0.37624  0.61279  1.0000
  I   I289      1.0  0.70322  0.70003  0.62404  1.0000
  I   I290      1.0  0.05390  0.26992  0.88063  1.0000
  I   I291      1.0  0.53050  0.97826  0.16228  1.0000
  I   I292      1.0  0.01402  0.04151  0.95720  1.0000
  I   I293      1.0  0.40666  0.65555  0.89469  1.0000
  I   I294      1.0  0.29169  0.45129  0.64046  1.0000
  I   I295      1.0  0.88339  0.21548  0.38429  1.0000
  I   I296      1.0  0.49230  0.33808  0.79031  1.0000
  I   I297      1.0  0.31063  0.89843  0.86200  1.0000
  I   I298      1.0  0.70139  0.11808  0.42510  1.0000
  I   I299      1.0  0.68830  0.01865  0.07260  1.0000
  I   I300      1.0  0.15268  0.54561  0.45531  1.0000
  I   I301      1.0  0.68653  0.09064  0.71207  1.0000
  I   I302      1.0  0.09576  0.08610  0.78042  1.0000
  I   I303      1.0  0.22552  0.17490  0.97239  1.0000
  I   I304      1.0  0.07246  0.73134  0.24083  1.0000
  I   I305      1.0  0.69798  0.99981  0.18490  1.0000
  I   I306      1.0  0.51276  0.35995  0.20260  1.0000
  I   I307      1.0  0.54366  0.61878  0.26488  1.0000
  I   I308      1.0  0.39404  0.85249  0.61219  1.0000
  I   I309      1.0  0.33679  0.02185  0.93134  1.0000
  I   I310      1.0  0.64469  0.55705  0.04028  1.0000
  I   I311      1.0  0.50096  0.06820  0.68539  1.0000
  I   I312      1.0  0.14105  0.09380  0.18709  1.0000
  I   I313      1.0  0.79240  0.94203  0.45069  1.0000
  I   I314      1.0  0.67038  0.79598  0.86838  1.0000
  I   I315      1.0  0.36316  0.84418  0.21120  1.0000
  I   I316      1.0  0.09297  0.23012  0.53203  1.0000
  I   I317      1.0  0.70673  0.49806  0.65386  1.0000
  I   I318      1.0  0.91342  0.95285  0.76075  1.0000
  I   I319      1.0  0.49233  0.47804  0.23151  1.0000
  I   I320      1.0  0.81124  0.09555  0.77366  1.0000
  I   I321      1.0  0.65475  0.38976  0.17075  1.0000
  I   I322      1.0  0.53535  0.41277  0.95357  1.0000
  I   I323      1.0  0.69286  0.50783  0.38949  1.0000
  I   I324      1.0  0.71395  0.86574  0.01421  1.0000
  I   I325      1.0  0.00987  0.53920  0.43766  1.0000
  I   I326      1.0  0.56070  0.30896  0.24278  1.0000
  I   I327      1.0  0.98422  0.69892  0.12854  1.0000
  I   I328      1.0  0.28564  0.13669  0.01165  1.0000
  I   I329      1.0  0.55691  0.70979  0.70291  1.0000
  I   I330      1.0  0.81677  0.51432  0.08959  1.0000
  I   I331      1.0  0.29221  0.60958  0.47204  1.0000
  I   I332      1.0  0.61467  0.22993  0.25582  1.0000
  I   I333      1.0  0.81802  0.51748  0.64293  1.0000
  I   I334      1.0  0.57314  0.33563  0.58186  1.0000
  I   I335      1.0  0.35083  0.45774  0.44743  1.0000
  I   I336      1.0  0.16249  0.46475  0.17988  1.0000
  I   I337      1.0  0.45152  0.71287  0.47375  1.0000
  I   I338      1.0  0.08546  0.19113  0.89804  1.0000
  I   I339      1.0  0.51208  0.05225  0.18946  1.0000
  I   I340      1.0  0.03857  0.95417  0.79418  1.0000
  I   I341      1.0  0.75700  0.79725  0.57836  1.0000
  I   I342      1.0  0.32238  0.38936  0.60078  1.0000
  I   I343      1.0  0.85582  0.18350  0.39459  1.0000
  I   I344      1.0  0.41389  0.36218  0.78185  1.0000
  I   I345      1.0  0.24367  0.95791  0.85197  1.0000
  I   I346      1.0  0.60646  0.18172  0.33124  1.0000
  I   I347      1.0  0.23206  0.24967  0.66959  1.0000
  I   I348      1.0  0.11582  0.60414  0.39387  1.0000
  I   I349      1.0  0.62023  0.10078  0.76049  1.0000
  I   I350      1.0  0.12111  0.12443  0.72540  1.0000
  I   I351      1.0  0.09523  0.05911  0.55125  1.0000
  I   I352      1.0  0.14824  0.76221  0.18262  1.0000
  I   I353      1.0  0.02179  0.35012  0.65225  1.0000
  I   I354      1.0  0.43653  0.34558  0.19328  1.0000
  I   I355      1.0  0.47380  0.54557  0.19370  1.0000
  I   I356      1.0  0.01265  0.39011  0.16309  1.0000
  I   I357      1.0  0.36426  0.02412  0.81664  1.0000
  I   I358      1.0  0.19450  0.72869  0.50674  1.0000
  I   I359      1.0  0.49894  0.01798  0.69678  1.0000
  I   I360      1.0  0.11794  0.04786  0.23015  1.0000
  I   I361      1.0  0.85893  0.91711  0.41770  1.0000
  I   I362      1.0  0.61349  0.85870  0.88002  1.0000
  I   I363      1.0  0.44050  0.90459  0.18451  1.0000
  I   I364      1.0  0.07449  0.20381  0.63006  1.0000
  I   I365      1.0  0.72261  0.41349  0.67226  1.0000
  I   I366      1.0  0.86899  0.90486  0.84493  1.0000
  I   I367      1.0  0.53244  0.41274  0.21116  1.0000
  I   I368      1.0  0.77822  0.07401  0.69711  1.0000
  I   I369      1.0  0.70666  0.35277  0.23904  1.0000
  I   I370      1.0  0.54404  0.39827  0.07928  1.0000
  I   I371      1.0  0.67798  0.58931  0.31606  1.0000
  I   I372      1.0  0.78551  0.76577  0.97354  1.0000
  I   I373      1.0  0.04570  0.46471  0.43137  1.0000
  I   I374      1.0  0.56463  0.32382  0.98897  1.0000
  I   I375      1.0  0.94141  0.67897  0.10525  1.0000
  I   I376      1.0  0.59363  0.75273  0.35234  1.0000
  I   I377      1.0  0.49670  0.71394  0.70831  1.0000
  I   I378      1.0  0.80384  0.42125  0.13440  1.0000
  I   I379      1.0  0.26629  0.61559  0.29171  1.0000
  I   I380      1.0  0.94070  0.87539  0.00147  1.0000
  I   I381      1.0  0.86119  0.44585  0.66622  1.0000
  I   I382      1.0  0.52467  0.41398  0.67249  1.0000
  I   I383      1.0  0.36885  0.47453  0.35817  1.0000
  I   I384      1.0  0.19970  0.52089  0.13637  1.0000
