data_image0
_chemical_formula_structural       Ti96I384
_chemical_formula_sum              "Ti96 I384"
_cell_length_a       80.2254
_cell_length_b       79.7394
_cell_length_c       39.0533
_cell_angle_alpha    88.7757
_cell_angle_beta     88.7757
_cell_angle_gamma    62.1586

_space_group_name_H-M_alt    "P 1"
_space_group_IT_number       1

loop_
  _space_group_symop_operation_xyz
  'x, y, z'

loop_
  _atom_site_type_symbol
  _atom_site_label
  _atom_site_symmetry_multiplicity
  _atom_site_fract_x
  _atom_site_fract_y
  _atom_site_fract_z
  _atom_site_occupancy
  Ti  Ti1       1.0  0.67274  0.59749  0.30087  1.0000
  Ti  Ti2       1.0  0.64975  0.98824  0.62920  1.0000
  Ti  Ti3       1.0  0.95520  0.98642  0.18467  1.0000
  Ti  Ti4       1.0  0.48434  0.78314  0.95211  1.0000
  Ti  Ti5       1.0  0.95203  0.61543  0.66438  1.0000
  Ti  Ti6       1.0  0.11603  0.89404  0.50208  1.0000
  Ti  Ti7       1.0  0.28199  0.29370  0.87422  1.0000
  Ti  Ti8       1.0  0.56004  0.40699  0.96252  1.0000
  Ti  Ti9       1.0  0.06133  0.16658  0.67067  1.0000
  Ti  Ti10      1.0  0.89042  0.36014  0.14400  1.0000
  Ti  Ti11      1.0  0.25221  0.81362  0.66727  1.0000
  Ti  Ti12      1.0  0.34613  0.97063  0.32068  1.0000
  Ti  Ti13      1.0  0.53639  0.58391  0.31386  1.0000
  Ti  Ti14      1.0  0.43094  0.80710  0.94818  1.0000
  Ti  Ti15      1.0  0.71724  0.23364  0.57284  1.0000
  Ti  Ti16      1.0  0.84767  0.53254  0.88396  1.0000
  Ti  Ti17      1.0  0.45885  0.06415  0.46214  1.0000
  Ti  Ti18      1.0  0.58364  0.32126  0.50429  1.0000
  Ti  Ti19      1.0  0.88323  0.18769  0.06474  1.0000
  Ti  Ti20      1.0  0.70819  0.70890  0.54783  1.0000
  Ti  Ti21      1.0  0.52073  0.44947  0.71937  1.0000
  Ti  Ti22      1.0  0.45990  0.22437  0.01339  1.0000
  Ti  Ti23      1.0  0.37890  0.24784  0.71235  1.0000
  Ti  Ti24      1.0  0.79210  0.48829  0.40551  1.0000
  Ti  Ti25      1.0  0.89662  0.06782  0.00924  1.0000
  Ti  Ti26      1.0  0.22216  0.74682  0.40572  1.0000
  Ti  Ti27      1.0  0.87860  0.82536  0.57414  1.0000
  Ti  Ti28      1.0  0.32897  0.16169  0.03435  1.0000
  Ti  Ti29      1.0  0.09150  0.53304  0.54255  1.0000
  Ti  Ti30      1.0  0.34004  0.64519  0.73366  1.0000
  Ti  Ti31      1.0  0.90479  0.87244  0.35712  1.0000
  Ti  Ti32      1.0  0.17203  0.21394  0.79868  1.0000
  Ti  Ti33      1.0  0.77204  0.31499  0.25193  1.0000
  Ti  Ti34      1.0  0.68042  0.64377  0.78128  1.0000
  Ti  Ti35      1.0  0.46971  0.08459  0.89796  1.0000
  Ti  Ti36      1.0  0.09705  0.90677  0.95042  1.0000
  Ti  Ti37      1.0  0.35530  0.91815  0.11922  1.0000
  Ti  Ti38      1.0  0.51540  0.60445  0.66137  1.0000
  Ti  Ti39      1.0  0.90845  0.32990  0.06786  1.0000
  Ti  Ti40      1.0  0.51597  0.12541  0.10560  1.0000
  Ti  Ti41      1.0  0.13741  0.07191  0.51197  1.0000
  Ti  Ti42      1.0  0.43330  0.30852  0.93664  1.0000
  Ti  Ti43      1.0  0.38217  0.60918  0.02414  1.0000
  Ti  Ti44      1.0  0.39348  0.44102  0.24986  1.0000
  Ti  Ti45      1.0  0.84773  0.08149  0.36078  1.0000
  Ti  Ti46      1.0  0.65687  0.85935  0.33991  1.0000
  Ti  Ti47      1.0  0.24877  0.52307  0.58536  1.0000
  Ti  Ti48      1.0  0.53924  0.89053  0.14442  1.0000
  Ti  Ti49      1.0  0.57216  0.02243  0.19132  1.0000
  Ti  Ti50      1.0  0.12360  0.24182  0.39853  1.0000
  Ti  Ti51      1.0  0.59101  0.00369  0.70153  1.0000
  Ti  Ti52      1.0  0.02332  0.53549  0.33656  1.0000
  Ti  Ti53      1.0  0.64057  0.30296  0.97669  1.0000
  Ti  Ti54      1.0  0.77714  0.00663  0.70992  1.0000
  Ti  Ti55      1.0  0.94838  0.70739  0.18544  1.0000
  Ti  Ti56      1.0  0.74931  0.99917  0.99977  1.0000
  Ti  Ti57      1.0  0.07374  0.12462  0.64052  1.0000
  Ti  Ti58      1.0  0.00564  0.87125  0.25899  1.0000
  Ti  Ti59      1.0  0.82776  0.49948  0.90517  1.0000
  Ti  Ti60      1.0  0.84929  0.17575  0.09743  1.0000
  Ti  Ti61      1.0  0.58961  0.11375  0.32464  1.0000
  Ti  Ti62      1.0  0.57066  0.53418  0.36532  1.0000
  Ti  Ti63      1.0  0.13544  0.76062  0.70660  1.0000
  Ti  Ti64      1.0  0.57397  0.29675  0.46767  1.0000
  Ti  Ti65      1.0  0.15274  0.16899  0.63292  1.0000
  Ti  Ti66      1.0  0.20259  0.97899  0.68634  1.0000
  Ti  Ti67      1.0  0.59612  0.78107  0.73382  1.0000
  Ti  Ti68      1.0  0.02149  0.76042  0.27146  1.0000
  Ti  Ti69      1.0  0.22832  0.78014  0.33578  1.0000
  Ti  Ti70      1.0  0.12272  0.82656  0.24247  1.0000
  Ti  Ti71      1.0  0.80689  0.47095  0.08650  1.0000
  Ti  Ti72      1.0  0.22580  0.42427  0.66838  1.0000
  Ti  Ti73      1.0  0.38147  0.63868  0.52857  1.0000
  Ti  Ti74      1.0  0.92615  0.02207  0.93515  1.0000
  Ti  Ti75      1.0  0.55659  0.00009  0.25313  1.0000
  Ti  Ti76      1.0  0.54318  0.73414  0.50391  1.0000
  Ti  Ti77      1.0  0.71162  0.22396  0.47012  1.0000
  Ti  Ti78      1.0  0.05418  0.58774  0.53190  1.0000
  Ti  Ti79      1.0  0.81745  0.05557  0.55325  1.0000
  Ti  Ti80      1.0  0.20534  0.39996  0.04476  1.0000
  Ti  Ti81      1.0  0.49794  0.27358  0.74484  1.0000
  Ti  Ti82      1.0  0.51348  0.64962  0.04991  1.0000
  Ti  Ti83      1.0  0.85390  0.12423  0.39590  1.0000
  Ti  Ti84      1.0  0.12071  0.84882  0.90697  1.0000
  Ti  Ti85      1.0  0.35163  0.94003  0.17676  1.0000
  Ti  Ti86      1.0  0.30000  0.31272  0.95369  1.0000
  Ti  Ti87      1.0  0.71483  0.77116  0.70505  1.0000
  Ti  Ti88      1.0  0.75062  0.22925  0.91457  1.0000
  Ti  Ti89      1.0  0.88207  0.14302  0.82835  1.0000
  Ti  Ti90      1.0  0.47716  0.01451  0.50950  1.0000
  Ti  Ti91      1.0  0.47879  0.39127  0.27022  1.0000
  Ti  Ti92      1.0  0.65540  0.49482  0.09143  1.0000
  Ti  Ti93      1.0  0.38605  0.89675  0.76566  1.0000
  Ti  Ti94      1.0  0.51207  0.87829  0.11407  1.0000
  Ti  Ti95      1.0  0.27651  0.82704  0.00677  1.0000
  Ti  Ti96      1.0  0.08538  0.15688  0.97351  1.0000
  I   I1        1.0  0.25225  0.50220  0.63997  1.0000
  I   I2        1.0  0.59129  0.03441  0.69150  1.0000
  I   I3        1.0  0.54028  0.03552  0.26365  1.0000
  I   I4        1.0  0.61242  0.33490  0.98750  1.0000
  I   I5        1.0  0.08741  0.92501  0.48512  1.0000
  I   I6        1.0  0.79521  0.01885  0.74739  1.0000
  I   I7        1.0  0.56370  0.37950  0.91621  1.0000
  I   I8        1.0  0.75169  0.02309  0.95814  1.0000
  I   I9        1.0  0.07139  0.13001  0.71067  1.0000
  I   I10       1.0  0.48200  0.13448  0.08269  1.0000
  I   I11       1.0  0.26745  0.77835  0.62758  1.0000
  I   I12       1.0  0.91798  0.62681  0.67142  1.0000
  I   I13       1.0  0.56780  0.55223  0.30504  1.0000
  I   I14       1.0  0.15540  0.72923  0.67562  1.0000
  I   I15       1.0  0.70826  0.21386  0.61588  1.0000
  I   I16       1.0  0.52154  0.10386  0.15743  1.0000
  I   I17       1.0  0.23556  0.95716  0.71377  1.0000
  I   I18       1.0  0.55834  0.31898  0.41020  1.0000
  I   I19       1.0  0.16111  0.76424  0.73501  1.0000
  I   I20       1.0  0.23271  0.80121  0.71338  1.0000
  I   I21       1.0  0.55834  0.43831  0.93820  1.0000
  I   I22       1.0  0.50634  0.30040  0.71566  1.0000
  I   I23       1.0  0.77225  0.22898  0.86279  1.0000
  I   I24       1.0  0.13897  0.79434  0.28179  1.0000
  I   I25       1.0  0.88979  0.07851  0.07133  1.0000
  I   I26       1.0  0.53876  0.03091  0.16809  1.0000
  I   I27       1.0  0.46885  0.11664  0.88721  1.0000
  I   I28       1.0  0.31172  0.19826  0.02729  1.0000
  I   I29       1.0  0.02575  0.61118  0.49802  1.0000
  I   I30       1.0  0.32738  0.62621  0.77881  1.0000
  I   I31       1.0  0.23315  0.36905  0.01529  1.0000
  I   I32       1.0  0.51415  0.23652  0.73930  1.0000
  I   I33       1.0  0.79903  0.05054  0.60916  1.0000
  I   I34       1.0  0.47105  0.05775  0.86143  1.0000
  I   I35       1.0  0.15133  0.82954  0.87052  1.0000
  I   I36       1.0  0.65708  0.62922  0.76847  1.0000
  I   I37       1.0  0.34901  0.89833  0.07115  1.0000
  I   I38       1.0  0.85362  0.36295  0.12839  1.0000
  I   I39       1.0  0.31702  0.97061  0.18231  1.0000
  I   I40       1.0  0.36683  0.47437  0.24533  1.0000
  I   I41       1.0  0.10873  0.25939  0.33670  1.0000
  I   I42       1.0  0.52337  0.15139  0.12725  1.0000
  I   I43       1.0  0.99010  0.86403  0.31925  1.0000
  I   I44       1.0  0.81638  0.09007  0.32349  1.0000
  I   I45       1.0  0.88323  0.13076  0.38995  1.0000
  I   I46       1.0  0.26249  0.85932  0.04036  1.0000
  I   I47       1.0  0.25629  0.50044  0.53449  1.0000
  I   I48       1.0  0.50448  0.90052  0.17638  1.0000
  I   I49       1.0  0.59085  0.00724  0.25052  1.0000
  I   I50       1.0  0.63052  0.02362  0.61068  1.0000
  I   I51       1.0  0.57263  0.99940  0.65581  1.0000
  I   I52       1.0  0.20670  0.40569  0.11035  1.0000
  I   I53       1.0  0.65521  0.29606  0.91428  1.0000
  I   I54       1.0  0.75004  0.00545  0.74746  1.0000
  I   I55       1.0  0.31628  0.28103  0.91525  1.0000
  I   I56       1.0  0.53365  0.44753  0.78059  1.0000
  I   I57       1.0  0.28853  0.80545  0.05772  1.0000
  I   I58       1.0  0.89492  0.32186  0.13446  1.0000
  I   I59       1.0  0.81541  0.53230  0.86830  1.0000
  I   I60       1.0  0.82153  0.16535  0.07834  1.0000
  I   I61       1.0  0.55889  0.51061  0.35441  1.0000
  I   I62       1.0  0.52314  0.60368  0.25433  1.0000
  I   I63       1.0  0.67004  0.72399  0.54640  1.0000
  I   I64       1.0  0.84471  0.49271  0.96432  1.0000
  I   I65       1.0  0.54014  0.10884  0.05395  1.0000
  I   I66       1.0  0.31622  0.15778  0.97777  1.0000
  I   I67       1.0  0.88420  0.21648  0.02459  1.0000
  I   I68       1.0  0.71232  0.67673  0.57902  1.0000
  I   I69       1.0  0.21874  0.71728  0.38587  1.0000
  I   I70       1.0  0.14241  0.84084  0.22012  1.0000
  I   I71       1.0  0.41533  0.23073  0.72689  1.0000
  I   I72       1.0  0.20680  0.45343  0.62304  1.0000
  I   I73       1.0  0.87552  0.85712  0.55525  1.0000
  I   I74       1.0  0.25192  0.73394  0.35065  1.0000
  I   I75       1.0  0.20797  0.81672  0.31005  1.0000
  I   I76       1.0  0.73784  0.22995  0.50636  1.0000
  I   I77       1.0  0.67474  0.24216  0.46261  1.0000
  I   I78       1.0  0.93762  0.85987  0.33340  1.0000
  I   I79       1.0  0.76470  0.29069  0.22230  1.0000
  I   I80       1.0  0.66705  0.60193  0.23666  1.0000
  I   I81       1.0  0.14870  0.21366  0.75137  1.0000
  I   I82       1.0  0.48609  0.68114  0.02994  1.0000
  I   I83       1.0  0.87109  0.06827  0.41376  1.0000
  I   I84       1.0  0.13159  0.86876  0.95868  1.0000
  I   I85       1.0  0.34823  0.90369  0.17779  1.0000
  I   I86       1.0  0.31472  0.14875  0.08047  1.0000
  I   I87       1.0  0.93328  0.32459  0.01922  1.0000
  I   I88       1.0  0.89092  0.37598  0.08140  1.0000
  I   I89       1.0  0.69976  0.66195  0.77078  1.0000
  I   I90       1.0  0.09976  0.22842  0.39874  1.0000
  I   I91       1.0  0.50106  0.40080  0.30120  1.0000
  I   I92       1.0  0.66725  0.51630  0.06017  1.0000
  I   I93       1.0  0.38872  0.40887  0.23815  1.0000
  I   I94       1.0  0.54879  0.85804  0.11339  1.0000
  I   I95       1.0  0.66064  0.88952  0.33150  1.0000
  I   I96       1.0  0.48459  0.18763  0.00916  1.0000
  I   I97       1.0  0.92123  0.01697  0.19748  1.0000
  I   I98       1.0  0.68272  0.56243  0.30438  1.0000
  I   I99       1.0  0.68620  0.97956  0.62357  1.0000
  I   I100      1.0  0.42140  0.77777  0.98366  1.0000
  I   I101      1.0  0.76293  0.22981  0.97467  1.0000
  I   I102      1.0  0.97616  0.61023  0.71140  1.0000
  I   I103      1.0  0.31314  0.30062  0.01992  1.0000
  I   I104      1.0  0.94218  0.74315  0.16526  1.0000
  I   I105      1.0  0.14518  0.09759  0.54739  1.0000
  I   I106      1.0  0.36843  0.97344  0.36145  1.0000
  I   I107      1.0  0.92620  0.34332  0.16190  1.0000
  I   I108      1.0  0.33196  0.00628  0.29376  1.0000
  I   I109      1.0  0.69137  0.26506  0.59756  1.0000
  I   I110      1.0  0.57467  0.52734  0.42707  1.0000
  I   I111      1.0  0.73646  0.68509  0.50943  1.0000
  I   I112      1.0  0.57619  0.35650  0.49547  1.0000
  I   I113      1.0  0.13174  0.20676  0.64275  1.0000
  I   I114      1.0  0.47352  0.08271  0.42049  1.0000
  I   I115      1.0  0.61479  0.75257  0.77316  1.0000
  I   I116      1.0  0.61782  0.79451  0.70751  1.0000
  I   I117      1.0  0.03617  0.78159  0.24361  1.0000
  I   I118      1.0  0.10785  0.15603  0.01888  1.0000
  I   I119      1.0  0.58310  0.76493  0.68579  1.0000
  I   I120      1.0  0.26445  0.54348  0.57094  1.0000
  I   I121      1.0  0.40728  0.64214  0.49342  1.0000
  I   I122      1.0  0.90849  0.09511  0.00125  1.0000
  I   I123      1.0  0.56598  0.98466  0.31516  1.0000
  I   I124      1.0  0.34619  0.62629  0.68103  1.0000
  I   I125      1.0  0.52475  0.73072  0.55770  1.0000
  I   I126      1.0  0.04654  0.56974  0.58798  1.0000
  I   I127      1.0  0.78053  0.33961  0.22594  1.0000
  I   I128      1.0  0.43782  0.81382  0.00957  1.0000
  I   I129      1.0  0.35816  0.24299  0.76096  1.0000
  I   I130      1.0  0.05983  0.92655  0.97527  1.0000
  I   I131      1.0  0.49302  0.63358  0.02335  1.0000
  I   I132      1.0  0.47990  0.07312  0.95989  1.0000
  I   I133      1.0  0.87839  0.34140  0.03560  1.0000
  I   I134      1.0  0.53127  0.62882  0.64843  1.0000
  I   I135      1.0  0.18348  0.99664  0.74093  1.0000
  I   I136      1.0  0.46639  0.29250  0.97115  1.0000
  I   I137      1.0  0.01207  0.57238  0.34257  1.0000
  I   I138      1.0  0.89374  0.16879  0.83667  1.0000
  I   I139      1.0  0.47322  0.36935  0.31216  1.0000
  I   I140      1.0  0.67389  0.46583  0.05393  1.0000
  I   I141      1.0  0.41080  0.89247  0.81755  1.0000
  I   I142      1.0  0.50537  0.87231  0.05331  1.0000
  I   I143      1.0  0.96391  0.96834  0.25026  1.0000
  I   I144      1.0  0.45709  0.22359  0.94609  1.0000
  I   I145      1.0  0.68949  0.61549  0.32475  1.0000
  I   I146      1.0  0.64904  0.97629  0.56893  1.0000
  I   I147      1.0  0.96509  0.00711  0.14041  1.0000
  I   I148      1.0  0.04834  0.51737  0.38328  1.0000
  I   I149      1.0  0.96017  0.63371  0.60906  1.0000
  I   I150      1.0  0.13509  0.88349  0.55512  1.0000
  I   I151      1.0  0.96032  0.70894  0.24493  1.0000
  I   I152      1.0  0.52976  0.40355  0.98215  1.0000
  I   I153      1.0  0.09397  0.14462  0.65029  1.0000
  I   I154      1.0  0.40232  0.62486  0.99533  1.0000
  I   I155      1.0  0.23683  0.84944  0.65349  1.0000
  I   I156      1.0  0.88229  0.14513  0.07893  1.0000
  I   I157      1.0  0.71651  0.24580  0.41480  1.0000
  I   I158      1.0  0.10849  0.76277  0.74368  1.0000
  I   I159      1.0  0.59590  0.09969  0.25844  1.0000
  I   I160      1.0  0.58779  0.26371  0.43878  1.0000
  I   I161      1.0  0.48721  0.02379  0.44071  1.0000
  I   I162      1.0  0.61134  0.31825  0.53792  1.0000
  I   I163      1.0  0.91536  0.17489  0.08978  1.0000
  I   I164      1.0  0.66569  0.83757  0.28462  1.0000
  I   I165      1.0  0.54740  0.42638  0.67738  1.0000
  I   I166      1.0  0.07741  0.18353  0.92549  1.0000
  I   I167      1.0  0.46709  0.28405  0.78376  1.0000
  I   I168      1.0  0.79305  0.45348  0.39066  1.0000
  I   I169      1.0  0.95529  0.02755  0.91788  1.0000
  I   I170      1.0  0.89429  0.05464  0.93791  1.0000
  I   I171      1.0  0.89834  0.82137  0.62977  1.0000
  I   I172      1.0  0.56412  0.70394  0.47168  1.0000
  I   I173      1.0  0.06062  0.55538  0.49376  1.0000
  I   I174      1.0  0.32866  0.68058  0.71078  1.0000
  I   I175      1.0  0.90466  0.86092  0.41795  1.0000
  I   I176      1.0  0.17801  0.24362  0.78154  1.0000
  I   I177      1.0  0.78630  0.08791  0.54030  1.0000
  I   I178      1.0  0.52319  0.67648  0.08839  1.0000
  I   I179      1.0  0.85615  0.04813  0.32735  1.0000
  I   I180      1.0  0.10994  0.87196  0.85066  1.0000
  I   I181      1.0  0.35013  0.93778  0.33756  1.0000
  I   I182      1.0  0.27165  0.27030  0.90956  1.0000
  I   I183      1.0  0.74557  0.74300  0.69522  1.0000
  I   I184      1.0  0.71589  0.25390  0.90839  1.0000
  I   I185      1.0  0.90499  0.10835  0.80851  1.0000
  I   I186      1.0  0.42057  0.33748  0.97532  1.0000
  I   I187      1.0  0.62212  0.49670  0.11012  1.0000
  I   I188      1.0  0.40857  0.44210  0.19269  1.0000
  I   I189      1.0  0.70505  0.76346  0.76775  1.0000
  I   I190      1.0  0.62364  0.87717  0.32941  1.0000
  I   I191      1.0  0.42657  0.06463  0.45141  1.0000
  I   I192      1.0  0.93916  0.97584  0.13509  1.0000
  I   I193      1.0  0.09365  0.56791  0.54409  1.0000
  I   I194      1.0  0.71936  0.72374  0.58970  1.0000
  I   I195      1.0  0.99361  0.96597  0.18373  1.0000
  I   I196      1.0  0.50943  0.78273  0.90470  1.0000
  I   I197      1.0  0.97737  0.87893  0.21831  1.0000
  I   I198      1.0  0.09792  0.87290  0.51815  1.0000
  I   I199      1.0  0.15431  0.21727  0.85756  1.0000
  I   I200      1.0  0.72628  0.98435  0.02651  1.0000
  I   I201      1.0  0.06447  0.11081  0.58374  1.0000
  I   I202      1.0  0.88398  0.53117  0.87752  1.0000
  I   I203      1.0  0.25286  0.74378  0.43358  1.0000
  I   I204      1.0  0.31695  0.99505  0.36978  1.0000
  I   I205      1.0  0.60512  0.51963  0.35728  1.0000
  I   I206      1.0  0.45837  0.77513  0.91516  1.0000
  I   I207      1.0  0.74394  0.24166  0.58562  1.0000
  I   I208      1.0  0.86817  0.49528  0.89116  1.0000
  I   I209      1.0  0.51696  0.99145  0.53320  1.0000
  I   I210      1.0  0.84584  0.01845  0.56576  1.0000
  I   I211      1.0  0.09396  0.85689  0.26725  1.0000
  I   I212      1.0  0.11716  0.78886  0.66707  1.0000
  I   I213      1.0  0.24718  0.76122  0.27597  1.0000
  I   I214      1.0  0.49105  0.22861  0.02453  1.0000
  I   I215      1.0  0.37029  0.23400  0.66085  1.0000
  I   I216      1.0  0.39703  0.88709  0.68982  1.0000
  I   I217      1.0  0.87719  0.04900  0.02571  1.0000
  I   I218      1.0  0.57753  0.97214  0.20649  1.0000
  I   I219      1.0  0.37908  0.65515  0.58790  1.0000
  I   I220      1.0  0.73485  0.18846  0.45022  1.0000
  I   I221      1.0  0.10450  0.53126  0.60538  1.0000
  I   I222      1.0  0.52460  0.75629  0.45841  1.0000
  I   I223      1.0  0.88263  0.90517  0.32429  1.0000
  I   I224      1.0  0.19384  0.17549  0.79133  1.0000
  I   I225      1.0  0.74733  0.34266  0.29430  1.0000
  I   I226      1.0  0.54239  0.61663  0.03654  1.0000
  I   I227      1.0  0.43362  0.09603  0.90916  1.0000
  I   I228      1.0  0.08098  0.88435  0.93005  1.0000
  I   I229      1.0  0.03440  0.87399  0.29143  1.0000
  I   I230      1.0  0.49052  0.59706  0.69862  1.0000
  I   I231      1.0  0.88377  0.38906  0.18457  1.0000
  I   I232      1.0  0.40445  0.83549  0.91623  1.0000
  I   I233      1.0  0.16739  0.05253  0.46961  1.0000
  I   I234      1.0  0.43678  0.09955  0.49024  1.0000
  I   I235      1.0  0.40985  0.58215  0.06514  1.0000
  I   I236      1.0  0.35465  0.91692  0.79452  1.0000
  I   I237      1.0  0.49381  0.39326  0.20856  1.0000
  I   I238      1.0  0.25290  0.81558  0.98704  1.0000
  I   I239      1.0  0.06810  0.14424  0.02300  1.0000
  I   I240      1.0  0.55602  0.87586  0.20259  1.0000
  I   I241      1.0  0.63874  0.61621  0.32192  1.0000
  I   I242      1.0  0.64257  0.97120  0.67961  1.0000
  I   I243      1.0  0.03928  0.75216  0.32764  1.0000
  I   I244      1.0  0.74581  0.19719  0.91425  1.0000
  I   I245      1.0  0.66991  0.28265  0.02085  1.0000
  I   I246      1.0  0.12554  0.88774  0.43608  1.0000
  I   I247      1.0  0.25113  0.31600  0.84002  1.0000
  I   I248      1.0  0.48897  0.44870  0.70326  1.0000
  I   I249      1.0  0.03505  0.17842  0.72648  1.0000
  I   I250      1.0  0.79293  0.50555  0.90356  1.0000
  I   I251      1.0  0.22733  0.81648  0.62432  1.0000
  I   I252      1.0  0.84427  0.16186  0.15302  1.0000
  I   I253      1.0  0.54802  0.61141  0.33384  1.0000
  I   I254      1.0  0.48540  0.80866  0.98484  1.0000
  I   I255      1.0  0.61095  0.12892  0.34661  1.0000
  I   I256      1.0  0.15536  0.15590  0.69978  1.0000
  I   I257      1.0  0.39122  0.90253  0.14448  1.0000
  I   I258      1.0  0.60370  0.30909  0.44635  1.0000
  I   I259      1.0  0.57029  0.80651  0.76980  1.0000
  I   I260      1.0  0.66607  0.83040  0.38037  1.0000
  I   I261      1.0  0.51129  0.48347  0.69357  1.0000
  I   I262      1.0  0.42936  0.24726  0.03596  1.0000
  I   I263      1.0  0.79734  0.44575  0.06656  1.0000
  I   I264      1.0  0.08897  0.93781  0.91912  1.0000
  I   I265      1.0  0.94854  0.98604  0.95251  1.0000
  I   I266      1.0  0.20163  0.75336  0.46349  1.0000
  I   I267      1.0  0.39888  0.60266  0.53360  1.0000
  I   I268      1.0  0.21715  0.00046  0.65488  1.0000
  I   I269      1.0  0.04963  0.61853  0.56453  1.0000
  I   I270      1.0  0.36286  0.13373  0.05540  1.0000
  I   I271      1.0  0.89259  0.85054  0.32914  1.0000
  I   I272      1.0  0.47220  0.28628  0.69285  1.0000
  I   I273      1.0  0.79571  0.29426  0.30103  1.0000
  I   I274      1.0  0.10170  0.09846  0.49891  1.0000
  I   I275      1.0  0.85367  0.81236  0.59826  1.0000
  I   I276      1.0  0.11758  0.82039  0.92468  1.0000
  I   I277      1.0  0.49972  0.65423  0.10985  1.0000
  I   I278      1.0  0.50462  0.60760  0.59426  1.0000
  I   I279      1.0  0.40169  0.44389  0.31197  1.0000
  I   I280      1.0  0.99827  0.52968  0.37229  1.0000
  I   I281      1.0  0.13859  0.04321  0.55132  1.0000
  I   I282      1.0  0.40534  0.29924  0.93213  1.0000
  I   I283      1.0  0.35539  0.62794  0.06501  1.0000
  I   I284      1.0  0.75856  0.52027  0.40889  1.0000
  I   I285      1.0  0.69772  0.80591  0.68810  1.0000
  I   I286      1.0  0.28201  0.84415  0.94757  1.0000
  I   I287      1.0  0.22653  0.39146  0.67546  1.0000
  I   I288      1.0  0.50916  0.91493  0.08721  1.0000
  I   I289      1.0  0.36241  0.60320  0.97849  1.0000
  I   I290      1.0  0.47963  0.98546  0.46793  1.0000
  I   I291      1.0  0.55836  0.01846  0.73294  1.0000
  I   I292      1.0  0.02206  0.52910  0.27496  1.0000
  I   I293      1.0  0.61281  0.29108  0.95767  1.0000
  I   I294      1.0  0.80161  0.97319  0.70021  1.0000
  I   I295      1.0  0.28060  0.33375  0.89266  1.0000
  I   I296      1.0  0.78251  0.96850  0.98183  1.0000
  I   I297      1.0  0.07392  0.09090  0.66097  1.0000
  I   I298      1.0  0.03968  0.84135  0.24391  1.0000
  I   I299      1.0  0.83762  0.46510  0.88412  1.0000
  I   I300      1.0  0.39555  0.86089  0.77491  1.0000
  I   I301      1.0  0.59998  0.07827  0.34249  1.0000
  I   I302      1.0  0.51087  0.56757  0.30939  1.0000
  I   I303      1.0  0.18326  0.17066  0.62749  1.0000
  I   I304      1.0  0.54595  0.31903  0.51461  1.0000
  I   I305      1.0  0.85141  0.54820  0.82279  1.0000
  I   I306      1.0  0.30724  0.27398  0.83395  1.0000
  I   I307      1.0  0.35920  0.95017  0.23393  1.0000
  I   I308      1.0  0.16021  0.22297  0.39062  1.0000
  I   I309      1.0  0.57727  0.39735  0.02082  1.0000
  I   I310      1.0  0.57702  0.05255  0.19892  1.0000
  I   I311      1.0  0.84242  0.45138  0.09153  1.0000
  I   I312      1.0  0.20995  0.54216  0.59076  1.0000
  I   I313      1.0  0.35399  0.65322  0.48610  1.0000
  I   I314      1.0  0.93427  0.03720  0.00241  1.0000
  I   I315      1.0  0.52374  0.00016  0.24735  1.0000
  I   I316      1.0  0.56716  0.72971  0.55447  1.0000
  I   I317      1.0  0.16585  0.98471  0.66406  1.0000
  I   I318      1.0  0.07712  0.51191  0.55807  1.0000
  I   I319      1.0  0.84163  0.06910  0.52608  1.0000
  I   I320      1.0  0.50229  0.75335  0.98834  1.0000
  I   I321      1.0  0.98066  0.68717  0.16432  1.0000
  I   I322      1.0  0.66606  0.66183  0.84169  1.0000
  I   I323      1.0  0.82592  0.11092  0.40013  1.0000
  I   I324      1.0  0.09931  0.91025  0.02064  1.0000
  I   I325      1.0  0.31705  0.94820  0.12622  1.0000
  I   I326      1.0  0.30451  0.34214  0.97130  1.0000
  I   I327      1.0  0.83071  0.16416  0.39316  1.0000
  I   I328      1.0  0.92741  0.29411  0.08746  1.0000
  I   I329      1.0  0.84906  0.16526  0.80293  1.0000
  I   I330      1.0  0.48516  0.04719  0.51578  1.0000
  I   I331      1.0  0.69055  0.75914  0.67482  1.0000
  I   I332      1.0  0.45200  0.03038  0.55076  1.0000
  I   I333      1.0  0.70324  0.61241  0.81013  1.0000
  I   I334      1.0  0.49475  0.85996  0.13938  1.0000
  I   I335      1.0  0.98895  0.77862  0.29582  1.0000
  I   I336      1.0  0.09355  0.12377  0.94032  1.0000
  I   I337      1.0  0.59450  0.99799  0.14743  1.0000
  I   I338      1.0  0.10127  0.26923  0.44144  1.0000
  I   I339      1.0  0.60550  0.99950  0.76473  1.0000
  I   I340      1.0  0.20464  0.43008  0.02138  1.0000
  I   I341      1.0  0.96533  0.58102  0.64194  1.0000
  I   I342      1.0  0.76952  0.02686  0.64737  1.0000
  I   I343      1.0  0.91694  0.70817  0.15693  1.0000
  I   I344      1.0  0.75606  0.01182  0.05466  1.0000
  I   I345      1.0  0.05750  0.19919  0.66201  1.0000
  I   I346      1.0  0.10898  0.81436  0.19745  1.0000
  I   I347      1.0  0.83603  0.54407  0.94809  1.0000
  I   I348      1.0  0.90107  0.16244  0.00938  1.0000
  I   I349      1.0  0.56359  0.13830  0.35776  1.0000
  I   I350      1.0  0.53976  0.57467  0.38276  1.0000
  I   I351      1.0  0.45587  0.81840  0.92082  1.0000
  I   I352      1.0  0.59165  0.28005  0.52189  1.0000
  I   I353      1.0  0.14074  0.16501  0.57479  1.0000
  I   I354      1.0  0.26348  0.32057  0.96329  1.0000
  I   I355      1.0  0.83785  0.19882  0.04396  1.0000
  I   I356      1.0  0.03701  0.73111  0.23087  1.0000
  I   I357      1.0  0.25264  0.78864  0.37369  1.0000
  I   I358      1.0  0.81145  0.49498  0.44977  1.0000
  I   I359      1.0  0.79980  0.47084  0.15482  1.0000
  I   I360      1.0  0.25783  0.40643  0.63706  1.0000
  I   I361      1.0  0.87499  0.82044  0.50949  1.0000
  I   I362      1.0  0.91557  0.02141  0.87424  1.0000
  I   I363      1.0  0.19914  0.77807  0.36664  1.0000
  I   I364      1.0  0.37633  0.62814  0.75035  1.0000
  I   I365      1.0  0.70596  0.20891  0.52693  1.0000
  I   I366      1.0  0.12322  0.51268  0.50896  1.0000
  I   I367      1.0  0.80424  0.03332  0.52782  1.0000
  I   I368      1.0  0.18123  0.38956  0.00350  1.0000
  I   I369      1.0  0.37311  0.27904  0.74965  1.0000
  I   I370      1.0  0.04310  0.15810  0.61614  1.0000
  I   I371      1.0  0.85869  0.12036  0.46311  1.0000
  I   I372      1.0  0.80418  0.49833  0.34676  1.0000
  I   I373      1.0  0.35999  0.95312  0.11272  1.0000
  I   I374      1.0  0.55031  0.58078  0.65460  1.0000
  I   I375      1.0  0.87017  0.10224  0.33799  1.0000
  I   I376      1.0  0.80280  0.49140  0.02670  1.0000
  I   I377      1.0  0.87123  0.14598  0.89233  1.0000
  I   I378      1.0  0.44513  0.32227  0.88499  1.0000
  I   I379      1.0  0.44045  0.40853  0.25567  1.0000
  I   I380      1.0  0.66818  0.49557  0.15104  1.0000
  I   I381      1.0  0.86700  0.19943  0.12470  1.0000
  I   I382      1.0  0.55111  0.91665  0.14027  1.0000
  I   I383      1.0  0.27695  0.79636  0.72232  1.0000
  I   I384      1.0  0.24104  0.42917  0.72503  1.0000
