data_image0
_chemical_formula_structural       Ti96I384
_chemical_formula_sum              "Ti96 I384"
_cell_length_a       53.4294
_cell_length_b       53.5524
_cell_length_c       25.8413
_cell_angle_alpha    88.7757
_cell_angle_beta     88.7757
_cell_angle_gamma    62.1586

_space_group_name_H-M_alt    "P 1"
_space_group_IT_number       1

loop_
  _space_group_symop_operation_xyz
  'x, y, z'

loop_
  _atom_site_type_symbol
  _atom_site_label
  _atom_site_symmetry_multiplicity
  _atom_site_fract_x
  _atom_site_fract_y
  _atom_site_fract_z
  _atom_site_occupancy
  Ti  Ti1       1.0  0.62472  0.69887  0.33155  1.0000
  Ti  Ti2       1.0  0.96235  0.09536  0.27934  1.0000
  Ti  Ti3       1.0  0.48299  0.83860  0.26094  1.0000
  Ti  Ti4       1.0  0.20937  0.01002  0.55911  1.0000
  Ti  Ti5       1.0  0.11188  0.24750  0.34736  1.0000
  Ti  Ti6       1.0  0.07493  0.25964  0.88897  1.0000
  Ti  Ti7       1.0  0.06582  0.82877  0.23727  1.0000
  Ti  Ti8       1.0  0.93105  0.09429  0.61356  1.0000
  Ti  Ti9       1.0  0.93061  0.85641  0.44700  1.0000
  Ti  Ti10      1.0  0.32328  0.80620  0.97808  1.0000
  Ti  Ti11      1.0  0.96623  0.71068  0.83208  1.0000
  Ti  Ti12      1.0  0.93134  0.62521  0.98766  1.0000
  Ti  Ti13      1.0  0.34417  0.23686  0.30403  1.0000
  Ti  Ti14      1.0  0.35724  0.13445  0.57808  1.0000
  Ti  Ti15      1.0  0.35786  0.09624  0.09085  1.0000
  Ti  Ti16      1.0  0.15191  0.69722  0.01092  1.0000
  Ti  Ti17      1.0  0.21369  0.65258  0.28266  1.0000
  Ti  Ti18      1.0  0.25320  0.41097  0.40471  1.0000
  Ti  Ti19      1.0  0.50133  0.68345  0.71882  1.0000
  Ti  Ti20      1.0  0.68309  0.86445  0.79731  1.0000
  Ti  Ti21      1.0  0.21920  0.62252  0.69745  1.0000
  Ti  Ti22      1.0  0.45145  0.88469  0.70209  1.0000
  Ti  Ti23      1.0  0.79211  0.86113  0.14541  1.0000
  Ti  Ti24      1.0  0.49430  0.99735  0.68065  1.0000
  Ti  Ti25      1.0  0.27890  0.24645  0.87982  1.0000
  Ti  Ti26      1.0  0.38487  0.29354  0.97574  1.0000
  Ti  Ti27      1.0  0.43493  0.56225  0.63869  1.0000
  Ti  Ti28      1.0  0.44215  0.63566  0.10391  1.0000
  Ti  Ti29      1.0  0.67161  0.37880  0.91860  1.0000
  Ti  Ti30      1.0  0.73022  0.48807  0.86616  1.0000
  Ti  Ti31      1.0  0.93329  0.44093  0.23928  1.0000
  Ti  Ti32      1.0  0.80202  0.34384  0.67039  1.0000
  Ti  Ti33      1.0  0.93577  0.46703  0.93403  1.0000
  Ti  Ti34      1.0  0.92179  0.91538  0.94215  1.0000
  Ti  Ti35      1.0  0.78256  0.63856  0.03135  1.0000
  Ti  Ti36      1.0  0.79048  0.63699  0.62092  1.0000
  Ti  Ti37      1.0  0.65820  0.23429  0.16629  1.0000
  Ti  Ti38      1.0  0.58240  0.30813  0.44771  1.0000
  Ti  Ti39      1.0  0.51005  0.35360  0.89047  1.0000
  Ti  Ti40      1.0  0.03911  0.06280  0.93475  1.0000
  Ti  Ti41      1.0  0.72813  0.23405  0.63390  1.0000
  Ti  Ti42      1.0  0.18898  0.88608  0.35376  1.0000
  Ti  Ti43      1.0  0.80481  0.34337  0.12936  1.0000
  Ti  Ti44      1.0  0.01736  0.44508  0.46943  1.0000
  Ti  Ti45      1.0  0.03298  0.51374  0.60636  1.0000
  Ti  Ti46      1.0  0.63792  0.99270  0.59712  1.0000
  Ti  Ti47      1.0  0.58268  0.05604  0.14813  1.0000
  Ti  Ti48      1.0  0.62563  0.14117  0.84586  1.0000
  Ti  Ti49      1.0  0.58037  0.77330  0.36075  1.0000
  Ti  Ti50      1.0  0.91771  0.04904  0.34515  1.0000
  Ti  Ti51      1.0  0.02340  0.11259  0.26564  1.0000
  Ti  Ti52      1.0  0.27864  0.95864  0.53498  1.0000
  Ti  Ti53      1.0  0.08543  0.22631  0.45555  1.0000
  Ti  Ti54      1.0  0.05268  0.24278  0.76447  1.0000
  Ti  Ti55      1.0  0.98055  0.87142  0.22630  1.0000
  Ti  Ti56      1.0  0.00118  0.05253  0.64167  1.0000
  Ti  Ti57      1.0  0.90451  0.86681  0.61513  1.0000
  Ti  Ti58      1.0  0.30209  0.85558  0.08313  1.0000
  Ti  Ti59      1.0  0.27524  0.82806  0.83830  1.0000
  Ti  Ti60      1.0  0.93420  0.67439  0.85201  1.0000
  Ti  Ti61      1.0  0.29191  0.16356  0.14072  1.0000
  Ti  Ti62      1.0  0.41460  0.23785  0.23485  1.0000
  Ti  Ti63      1.0  0.28637  0.13467  0.57735  1.0000
  Ti  Ti64      1.0  0.22261  0.39380  0.28974  1.0000
  Ti  Ti65      1.0  0.18577  0.67512  0.14416  1.0000
  Ti  Ti66      1.0  0.10627  0.69346  0.45099  1.0000
  Ti  Ti67      1.0  0.58650  0.65291  0.65604  1.0000
  Ti  Ti68      1.0  0.74285  0.82159  0.81156  1.0000
  Ti  Ti69      1.0  0.21873  0.56672  0.69868  1.0000
  Ti  Ti70      1.0  0.46190  0.95033  0.70251  1.0000
  Ti  Ti71      1.0  0.80909  0.79789  0.05636  1.0000
  Ti  Ti72      1.0  0.73518  0.88280  0.30602  1.0000
  Ti  Ti73      1.0  0.43405  0.51061  0.69256  1.0000
  Ti  Ti74      1.0  0.31608  0.30349  0.84955  1.0000
  Ti  Ti75      1.0  0.37775  0.37846  0.01813  1.0000
  Ti  Ti76      1.0  0.73907  0.55094  0.78755  1.0000
  Ti  Ti77      1.0  0.51787  0.63720  0.10186  1.0000
  Ti  Ti78      1.0  0.67893  0.45544  0.92441  1.0000
  Ti  Ti79      1.0  0.92582  0.40908  0.88106  1.0000
  Ti  Ti80      1.0  0.93556  0.37106  0.25308  1.0000
  Ti  Ti81      1.0  0.85562  0.32188  0.79566  1.0000
  Ti  Ti82      1.0  0.89840  0.00301  0.95210  1.0000
  Ti  Ti83      1.0  0.71626  0.64937  0.02745  1.0000
  Ti  Ti84      1.0  0.82239  0.67435  0.52571  1.0000
  Ti  Ti85      1.0  0.66526  0.14430  0.18307  1.0000
  Ti  Ti86      1.0  0.58466  0.28342  0.28956  1.0000
  Ti  Ti87      1.0  0.50819  0.39811  0.03392  1.0000
  Ti  Ti88      1.0  0.04140  0.99943  0.93345  1.0000
  Ti  Ti89      1.0  0.73402  0.18319  0.54927  1.0000
  Ti  Ti90      1.0  0.21728  0.81139  0.26907  1.0000
  Ti  Ti91      1.0  0.11197  0.50199  0.66608  1.0000
  Ti  Ti92      1.0  0.83809  0.31284  0.01030  1.0000
  Ti  Ti93      1.0  0.97420  0.53487  0.47967  1.0000
  Ti  Ti94      1.0  0.56213  0.14531  0.78286  1.0000
  Ti  Ti95      1.0  0.70600  0.99512  0.66027  1.0000
  Ti  Ti96      1.0  0.53729  0.07230  0.00280  1.0000
  I   I1        1.0  0.91198  0.03659  0.44261  1.0000
  I   I2        1.0  0.96306  0.14005  0.33194  1.0000
  I   I3        1.0  0.58678  0.81340  0.30933  1.0000
  I   I4        1.0  0.11011  0.21997  0.54939  1.0000
  I   I5        1.0  0.09197  0.26174  0.77619  1.0000
  I   I6        1.0  0.12376  0.22869  0.92209  1.0000
  I   I7        1.0  0.96343  0.03748  0.59774  1.0000
  I   I8        1.0  0.90187  0.10568  0.52676  1.0000
  I   I9        1.0  0.95998  0.87348  0.39212  1.0000
  I   I10       1.0  0.30320  0.76672  0.97900  1.0000
  I   I11       1.0  0.90344  0.73238  0.84154  1.0000
  I   I12       1.0  0.29536  0.90905  0.07478  1.0000
  I   I13       1.0  0.40029  0.19704  0.25879  1.0000
  I   I14       1.0  0.34694  0.09218  0.60361  1.0000
  I   I15       1.0  0.30104  0.13369  0.05363  1.0000
  I   I16       1.0  0.13339  0.69213  0.11214  1.0000
  I   I17       1.0  0.12398  0.72789  0.41518  1.0000
  I   I18       1.0  0.20518  0.45425  0.34220  1.0000
  I   I19       1.0  0.71398  0.82519  0.72236  1.0000
  I   I20       1.0  0.20985  0.56643  0.80736  1.0000
  I   I21       1.0  0.27212  0.57944  0.72610  1.0000
  I   I22       1.0  0.83590  0.74984  0.10256  1.0000
  I   I23       1.0  0.77878  0.81945  0.16552  1.0000
  I   I24       1.0  0.51160  0.94381  0.74414  1.0000
  I   I25       1.0  0.26178  0.33680  0.83410  1.0000
  I   I26       1.0  0.38119  0.35110  0.92996  1.0000
  I   I27       1.0  0.43764  0.52125  0.57174  1.0000
  I   I28       1.0  0.49151  0.61706  0.17898  1.0000
  I   I29       1.0  0.65808  0.44456  0.00601  1.0000
  I   I30       1.0  0.68382  0.53787  0.87416  1.0000
  I   I31       1.0  0.95802  0.39661  0.32007  1.0000
  I   I32       1.0  0.79501  0.35445  0.77838  1.0000
  I   I33       1.0  0.95775  0.43760  0.84674  1.0000
  I   I34       1.0  0.80435  0.61761  0.11732  1.0000
  I   I35       1.0  0.84525  0.63793  0.61227  1.0000
  I   I36       1.0  0.92125  0.03209  0.91048  1.0000
  I   I37       1.0  0.63165  0.23158  0.27068  1.0000
  I   I38       1.0  0.48166  0.45302  0.02607  1.0000
  I   I39       1.0  0.63779  0.14686  0.26586  1.0000
  I   I40       1.0  0.76559  0.18535  0.46770  1.0000
  I   I41       1.0  0.20639  0.82210  0.17186  1.0000
  I   I42       1.0  0.04964  0.98820  0.03631  1.0000
  I   I43       1.0  0.85890  0.26926  0.07098  1.0000
  I   I44       1.0  0.95548  0.49635  0.46229  1.0000
  I   I45       1.0  0.99430  0.54892  0.66581  1.0000
  I   I46       1.0  0.67202  0.01767  0.56521  1.0000
  I   I47       1.0  0.60036  0.00174  0.14218  1.0000
  I   I48       1.0  0.63747  0.18357  0.83842  1.0000
  I   I49       1.0  0.58652  0.71245  0.40469  1.0000
  I   I50       1.0  0.91118  0.10675  0.22968  1.0000
  I   I51       1.0  0.06889  0.09461  0.21043  1.0000
  I   I52       1.0  0.25858  0.98582  0.62358  1.0000
  I   I53       1.0  0.06481  0.22889  0.35107  1.0000
  I   I54       1.0  0.05570  0.20102  0.71072  1.0000
  I   I55       1.0  0.01101  0.87939  0.14083  1.0000
  I   I56       1.0  0.04872  0.05074  0.64165  1.0000
  I   I57       1.0  0.94450  0.86698  0.54360  1.0000
  I   I58       1.0  0.33828  0.79171  0.87371  1.0000
  I   I59       1.0  0.29357  0.77829  0.79809  1.0000
  I   I60       1.0  0.95780  0.60976  0.89019  1.0000
  I   I61       1.0  0.31923  0.21336  0.25535  1.0000
  I   I62       1.0  0.45684  0.21684  0.29915  1.0000
  I   I63       1.0  0.40190  0.11020  0.51847  1.0000
  I   I64       1.0  0.18484  0.70151  0.93863  1.0000
  I   I65       1.0  0.24965  0.64476  0.19038  1.0000
  I   I66       1.0  0.08308  0.66629  0.39765  1.0000
  I   I67       1.0  0.61007  0.66072  0.57535  1.0000
  I   I68       1.0  0.63670  0.85360  0.78269  1.0000
  I   I69       1.0  0.16474  0.62602  0.68649  1.0000
  I   I70       1.0  0.41377  0.95033  0.67004  1.0000
  I   I71       1.0  0.77416  0.85690  0.04529  1.0000
  I   I72       1.0  0.68857  0.92589  0.34208  1.0000
  I   I73       1.0  0.44801  0.60442  0.61882  1.0000
  I   I74       1.0  0.37570  0.27082  0.88514  1.0000
  I   I75       1.0  0.32829  0.42179  0.03469  1.0000
  I   I76       1.0  0.46504  0.60165  0.02869  1.0000
  I   I77       1.0  0.56808  0.59484  0.10557  1.0000
  I   I78       1.0  0.70478  0.45781  0.82894  1.0000
  I   I79       1.0  0.91916  0.36645  0.90717  1.0000
  I   I80       1.0  0.90070  0.35194  0.23630  1.0000
  I   I81       1.0  0.83726  0.28528  0.75802  1.0000
  I   I82       1.0  0.91644  0.89312  0.86119  1.0000
  I   I83       1.0  0.79674  0.68137  0.02555  1.0000
  I   I84       1.0  0.84490  0.70300  0.57203  1.0000
  I   I85       1.0  0.63589  0.19990  0.12965  1.0000
  I   I86       1.0  0.54147  0.33310  0.26759  1.0000
  I   I87       1.0  0.49305  0.39308  0.12718  1.0000
  I   I88       1.0  0.07447  0.08001  0.88218  1.0000
  I   I89       1.0  0.78235  0.19395  0.64007  1.0000
  I   I90       1.0  0.21497  0.87111  0.44288  1.0000
  I   I91       1.0  0.13645  0.45786  0.72380  1.0000
  I   I92       1.0  0.85108  0.31866  0.17911  1.0000
  I   I93       1.0  0.01824  0.54699  0.50807  1.0000
  I   I94       1.0  0.52764  0.12196  0.77299  1.0000
  I   I95       1.0  0.70322  0.97609  0.75169  1.0000
  I   I96       1.0  0.50977  0.12564  0.97029  1.0000
  I   I97       1.0  0.47192  0.86968  0.34924  1.0000
  I   I98       1.0  0.62521  0.65151  0.29373  1.0000
  I   I99       1.0  0.98416  0.09970  0.19032  1.0000
  I   I100      1.0  0.29141  0.91197  0.58188  1.0000
  I   I101      1.0  0.22147  0.05066  0.57167  1.0000
  I   I102      1.0  0.12899  0.21098  0.26975  1.0000
  I   I103      1.0  0.94889  0.84850  0.19388  1.0000
  I   I104      1.0  0.08716  0.79957  0.31709  1.0000
  I   I105      1.0  0.94132  0.85458  0.68940  1.0000
  I   I106      1.0  0.87942  0.65908  0.04052  1.0000
  I   I107      1.0  0.27992  0.85711  0.93076  1.0000
  I   I108      1.0  0.96805  0.65881  0.76443  1.0000
  I   I109      1.0  0.23703  0.19009  0.14042  1.0000
  I   I110      1.0  0.36674  0.22060  0.39542  1.0000
  I   I111      1.0  0.37457  0.16722  0.62165  1.0000
  I   I112      1.0  0.26849  0.38906  0.24417  1.0000
  I   I113      1.0  0.22197  0.64642  0.07033  1.0000
  I   I114      1.0  0.24068  0.66708  0.34538  1.0000
  I   I115      1.0  0.53315  0.66211  0.62336  1.0000
  I   I116      1.0  0.57284  0.70624  0.68810  1.0000
  I   I117      1.0  0.69079  0.89482  0.86294  1.0000
  I   I118      1.0  0.44422  0.99944  0.74805  1.0000
  I   I119      1.0  0.49632  0.84333  0.74262  1.0000
  I   I120      1.0  0.72988  0.91267  0.21010  1.0000
  I   I121      1.0  0.42842  0.56945  0.74580  1.0000
  I   I122      1.0  0.30334  0.27425  0.92603  1.0000
  I   I123      1.0  0.44138  0.26201  0.97131  1.0000
  I   I124      1.0  0.74165  0.49936  0.75524  1.0000
  I   I125      1.0  0.42087  0.61078  0.16275  1.0000
  I   I126      1.0  0.71644  0.39294  0.93341  1.0000
  I   I127      1.0  0.95022  0.40584  0.98354  1.0000
  I   I128      1.0  0.88599  0.42077  0.28250  1.0000
  I   I129      1.0  0.76205  0.33043  0.66107  1.0000
  I   I130      1.0  0.78129  0.68595  0.66454  1.0000
  I   I131      1.0  0.94407  0.94921  0.90857  1.0000
  I   I132      1.0  0.71046  0.62011  0.10458  1.0000
  I   I133      1.0  0.55895  0.38896  0.05352  1.0000
  I   I134      1.0  0.60261  0.28548  0.18213  1.0000
  I   I135      1.0  0.53974  0.33710  0.50480  1.0000
  I   I136      1.0  0.13152  0.91832  0.33167  1.0000
  I   I137      1.0  0.99713  0.04527  0.97973  1.0000
  I   I138      1.0  0.74541  0.25854  0.55954  1.0000
  I   I139      1.0  0.06559  0.54568  0.62362  1.0000
  I   I140      1.0  0.89159  0.30564  0.99691  1.0000
  I   I141      1.0  0.01598  0.49335  0.40986  1.0000
  I   I142      1.0  0.66271  0.11786  0.76665  1.0000
  I   I143      1.0  0.69175  0.95278  0.61517  1.0000
  I   I144      1.0  0.59445  0.06133  0.03983  1.0000
  I   I145      1.0  0.58137  0.78112  0.46070  1.0000
  I   I146      1.0  0.94666  0.08008  0.37944  1.0000
  I   I147      1.0  0.51288  0.80003  0.19822  1.0000
  I   I148      1.0  0.32884  0.95780  0.53133  1.0000
  I   I149      1.0  0.07493  0.27791  0.42938  1.0000
  I   I150      1.0  0.00823  0.26956  0.83758  1.0000
  I   I151      1.0  0.01982  0.81675  0.23536  1.0000
  I   I152      1.0  0.91124  0.14698  0.63179  1.0000
  I   I153      1.0  0.88532  0.85462  0.51447  1.0000
  I   I154      1.0  0.37485  0.76925  0.00074  1.0000
  I   I155      1.0  0.97562  0.74119  0.90452  1.0000
  I   I156      1.0  0.89144  0.66420  0.83847  1.0000
  I   I157      1.0  0.28807  0.21486  0.11966  1.0000
  I   I158      1.0  0.32388  0.15766  0.49990  1.0000
  I   I159      1.0  0.41174  0.06828  0.12384  1.0000
  I   I160      1.0  0.28918  0.42625  0.38613  1.0000
  I   I161      1.0  0.18281  0.63090  0.18914  1.0000
  I   I162      1.0  0.27616  0.36406  0.47138  1.0000
  I   I163      1.0  0.56047  0.64747  0.75469  1.0000
  I   I164      1.0  0.78526  0.77428  0.78453  1.0000
  I   I165      1.0  0.20910  0.66469  0.62860  1.0000
  I   I166      1.0  0.45114  0.91997  0.78849  1.0000
  I   I167      1.0  0.84541  0.82463  0.12653  1.0000
  I   I168      1.0  0.47175  0.04578  0.63259  1.0000
  I   I169      1.0  0.23590  0.25748  0.94833  1.0000
  I   I170      1.0  0.32326  0.33315  0.93076  1.0000
  I   I171      1.0  0.48991  0.52477  0.67863  1.0000
  I   I172      1.0  0.78446  0.55509  0.77459  1.0000
  I   I173      1.0  0.68066  0.34785  1.00000  1.0000
  I   I174      1.0  0.72054  0.46210  0.96305  1.0000
  I   I175      1.0  0.97719  0.43588  0.17829  1.0000
  I   I176      1.0  0.86009  0.33490  0.69688  1.0000
  I   I177      1.0  0.97653  0.46741  0.98703  1.0000
  I   I178      1.0  0.88872  0.95882  0.02089  1.0000
  I   I179      1.0  0.74123  0.67555  0.95575  1.0000
  I   I180      1.0  0.74663  0.62777  0.61688  1.0000
  I   I181      1.0  0.69722  0.17137  0.19065  1.0000
  I   I182      1.0  0.60508  0.32035  0.35322  1.0000
  I   I183      1.0  0.47496  0.37400  0.81569  1.0000
  I   I184      1.0  0.99687  0.10994  0.92228  1.0000
  I   I185      1.0  0.70802  0.27295  0.70044  1.0000
  I   I186      1.0  0.20774  0.76750  0.28455  1.0000
  I   I187      1.0  0.77832  0.32833  0.04488  1.0000
  I   I188      1.0  0.06864  0.42390  0.47278  1.0000
  I   I189      1.0  0.00354  0.49055  0.55963  1.0000
  I   I190      1.0  0.59040  0.03166  0.56637  1.0000
  I   I191      1.0  0.57063  0.06425  0.24700  1.0000
  I   I192      1.0  0.60885  0.09922  0.83624  1.0000
  I   I193      1.0  0.66542  0.66328  0.39234  1.0000
  I   I194      1.0  0.96889  0.03419  0.27231  1.0000
  I   I195      1.0  0.43123  0.84394  0.25350  1.0000
  I   I196      1.0  0.17503  0.01861  0.64208  1.0000
  I   I197      1.0  0.14136  0.18518  0.43115  1.0000
  I   I198      1.0  0.05393  0.25335  0.97869  1.0000
  I   I199      1.0  0.09737  0.85574  0.25226  1.0000
  I   I200      1.0  0.02366  0.00227  0.68234  1.0000
  I   I201      1.0  0.89474  0.86474  0.36701  1.0000
  I   I202      1.0  0.34196  0.84288  0.00640  1.0000
  I   I203      1.0  0.01083  0.69939  0.77595  1.0000
  I   I204      1.0  0.96636  0.61078  0.05926  1.0000
  I   I205      1.0  0.30249  0.27840  0.35189  1.0000
  I   I206      1.0  0.30256  0.16463  0.64567  1.0000
  I   I207      1.0  0.34302  0.07182  0.17018  1.0000
  I   I208      1.0  0.14440  0.66577  0.94766  1.0000
  I   I209      1.0  0.24022  0.59701  0.29903  1.0000
  I   I210      1.0  0.23363  0.43578  0.49464  1.0000
  I   I211      1.0  0.45665  0.71440  0.66455  1.0000
  I   I212      1.0  0.74056  0.86872  0.76053  1.0000
  I   I213      1.0  0.23297  0.58833  0.60727  1.0000
  I   I214      1.0  0.44387  0.86518  0.61975  1.0000
  I   I215      1.0  0.78540  0.91543  0.12721  1.0000
  I   I216      1.0  0.52928  0.00245  0.73827  1.0000
  I   I217      1.0  0.25668  0.23878  0.79381  1.0000
  I   I218      1.0  0.37849  0.25521  0.02587  1.0000
  I   I219      1.0  0.45464  0.45670  0.67224  1.0000
  I   I220      1.0  0.39499  0.67277  0.05239  1.0000
  I   I221      1.0  0.61637  0.39356  0.92372  1.0000
  I   I222      1.0  0.78439  0.43918  0.86955  1.0000
  I   I223      1.0  0.89248  0.47932  0.18549  1.0000
  I   I224      1.0  0.83754  0.31666  0.59529  1.0000
  I   I225      1.0  0.92720  0.51491  0.88279  1.0000
  I   I226      1.0  0.89757  0.89208  0.00997  1.0000
  I   I227      1.0  0.83469  0.60773  0.98740  1.0000
  I   I228      1.0  0.79992  0.63128  0.50942  1.0000
  I   I229      1.0  0.66277  0.24876  0.07521  1.0000
  I   I230      1.0  0.59670  0.34825  0.46758  1.0000
  I   I231      1.0  0.52007  0.40035  0.90155  1.0000
  I   I232      1.0  0.05670  0.06806  0.02295  1.0000
  I   I233      1.0  0.69762  0.17144  0.49727  1.0000
  I   I234      1.0  0.26360  0.78647  0.32097  1.0000
  I   I235      1.0  0.78250  0.31608  0.18760  1.0000
  I   I236      1.0  0.99518  0.42359  0.53686  1.0000
  I   I237      1.0  0.09466  0.48128  0.56970  1.0000
  I   I238      1.0  0.62727  0.95142  0.57868  1.0000
  I   I239      1.0  0.62699  0.06195  0.16726  1.0000
  I   I240      1.0  0.64860  0.11558  0.93230  1.0000
  I   I241      1.0  0.64187  0.74562  0.33504  1.0000
  I   I242      1.0  0.01550  0.06841  0.30972  1.0000
  I   I243      1.0  0.47188  0.88610  0.20353  1.0000
  I   I244      1.0  0.21894  0.95671  0.52756  1.0000
  I   I245      1.0  0.15799  0.25099  0.37591  1.0000
  I   I246      1.0  0.05816  0.31336  0.89011  1.0000
  I   I247      1.0  0.09071  0.80156  0.15324  1.0000
  I   I248      1.0  0.97802  0.09105  0.55028  1.0000
  I   I249      1.0  0.96346  0.80272  0.47400  1.0000
  I   I250      1.0  0.31000  0.79786  0.08315  1.0000
  I   I251      1.0  0.94033  0.76560  0.79368  1.0000
  I   I252      1.0  0.91511  0.58768  0.98655  1.0000
  I   I253      1.0  0.35381  0.27149  0.23651  1.0000
  I   I254      1.0  0.27092  0.09998  0.62754  1.0000
  I   I255      1.0  0.36365  0.07647  0.99557  1.0000
  I   I256      1.0  0.10187  0.74211  0.99233  1.0000
  I   I257      1.0  0.16466  0.66035  0.32446  1.0000
  I   I258      1.0  0.21111  0.38814  0.39129  1.0000
  I   I259      1.0  0.48047  0.65472  0.76965  1.0000
  I   I260      1.0  0.76383  0.82893  0.89984  1.0000
  I   I261      1.0  0.20280  0.64735  0.78563  1.0000
  I   I262      1.0  0.40355  0.88911  0.74583  1.0000
  I   I263      1.0  0.79204  0.87377  0.26893  1.0000
  I   I264      1.0  0.52969  0.97619  0.60574  1.0000
  I   I265      1.0  0.31977  0.19502  0.90098  1.0000
  I   I266      1.0  0.37012  0.33140  0.05475  1.0000
  I   I267      1.0  0.38482  0.59848  0.59278  1.0000
  I   I268      1.0  0.45594  0.67746  0.10952  1.0000
  I   I269      1.0  0.69051  0.34720  0.84361  1.0000
  I   I270      1.0  0.76088  0.51344  0.88797  1.0000
  I   I271      1.0  0.92731  0.48081  0.30446  1.0000
  I   I272      1.0  0.77612  0.39752  0.63862  1.0000
  I   I273      1.0  0.89138  0.49678  0.99402  1.0000
  I   I274      1.0  0.96764  0.88572  0.00002  1.0000
  I   I275      1.0  0.72147  0.68289  0.09520  1.0000
  I   I276      1.0  0.81444  0.60707  0.70168  1.0000
  I   I277      1.0  0.68656  0.25667  0.21476  1.0000
  I   I278      1.0  0.61554  0.25899  0.48893  1.0000
  I   I279      1.0  0.49777  0.31025  0.90582  1.0000
  I   I280      1.0  0.01616  0.02571  0.84771  1.0000
  I   I281      1.0  0.68676  0.24115  0.55531  1.0000
  I   I282      1.0  0.20161  0.92688  0.35343  1.0000
  I   I283      1.0  0.81551  0.36792  0.03315  1.0000
  I   I284      1.0  0.00450  0.42539  0.38986  1.0000
  I   I285      1.0  0.05249  0.46549  0.66627  1.0000
  I   I286      1.0  0.62848  0.00574  0.69449  1.0000
  I   I287      1.0  0.52697  0.06982  0.11277  1.0000
  I   I288      1.0  0.56857  0.16890  0.88133  1.0000
  I   I289      1.0  0.60380  0.72940  0.24146  1.0000
  I   I290      1.0  0.86985  0.09051  0.34434  1.0000
  I   I291      1.0  0.03878  0.13544  0.34078  1.0000
  I   I292      1.0  0.16995  0.03182  0.49419  1.0000
  I   I293      1.0  0.04031  0.22604  0.48775  1.0000
  I   I294      1.0  0.01452  0.29019  0.71363  1.0000
  I   I295      1.0  0.01589  0.88196  0.29316  1.0000
  I   I296      1.0  0.96753  0.08891  0.70824  1.0000
  I   I297      1.0  0.88118  0.92229  0.60970  1.0000
  I   I298      1.0  0.24608  0.87315  0.09225  1.0000
  I   I299      1.0  0.24822  0.86604  0.76546  1.0000
  I   I300      1.0  0.91777  0.68153  0.95750  1.0000
  I   I301      1.0  0.35629  0.13366  0.15891  1.0000
  I   I302      1.0  0.42624  0.28205  0.21805  1.0000
  I   I303      1.0  0.24108  0.17804  0.55571  1.0000
  I   I304      1.0  0.21550  0.34764  0.27370  1.0000
  I   I305      1.0  0.18176  0.70585  0.22957  1.0000
  I   I306      1.0  0.06597  0.72868  0.50877  1.0000
  I   I307      1.0  0.49837  0.71959  0.78502  1.0000
  I   I308      1.0  0.65894  0.90814  0.73108  1.0000
  I   I309      1.0  0.17617  0.55698  0.67331  1.0000
  I   I310      1.0  0.49583  0.89845  0.65091  1.0000
  I   I311      1.0  0.76377  0.79683  0.03330  1.0000
  I   I312      1.0  0.76405  0.85183  0.38902  1.0000
  I   I313      1.0  0.38101  0.53267  0.68643  1.0000
  I   I314      1.0  0.34643  0.29642  0.76111  1.0000
  I   I315      1.0  0.39485  0.41199  0.97271  1.0000
  I   I316      1.0  0.70231  0.59619  0.82546  1.0000
  I   I317      1.0  0.53605  0.66850  0.15387  1.0000
  I   I318      1.0  0.63834  0.50538  0.93480  1.0000
  I   I319      1.0  0.90423  0.41774  0.78701  1.0000
  I   I320      1.0  0.97968  0.32176  0.24342  1.0000
  I   I321      1.0  0.86108  0.36377  0.83546  1.0000
  I   I322      1.0  0.85496  0.01080  0.89520  1.0000
  I   I323      1.0  0.76237  0.60319  0.97997  1.0000
  I   I324      1.0  0.77552  0.71515  0.49391  1.0000
  I   I325      1.0  0.64135  0.13116  0.10465  1.0000
  I   I326      1.0  0.56155  0.28492  0.37632  1.0000
  I   I327      1.0  0.55025  0.31832  0.83343  1.0000
  I   I328      1.0  0.04955  0.94647  0.92967  1.0000
  I   I329      1.0  0.71241  0.19289  0.65735  1.0000
  I   I330      1.0  0.21124  0.86900  0.25372  1.0000
  I   I331      1.0  0.11092  0.53403  0.74472  1.0000
  I   I332      1.0  0.76072  0.38764  0.15980  1.0000
  I   I333      1.0  0.94581  0.56016  0.56200  1.0000
  I   I334      1.0  0.58576  0.13543  0.69155  1.0000
  I   I335      1.0  0.68598  0.04625  0.67976  1.0000
  I   I336      1.0  0.49302  0.06815  0.97211  1.0000
  I   I337      1.0  0.52797  0.79138  0.33850  1.0000
  I   I338      1.0  0.90686  0.01141  0.30501  1.0000
  I   I339      1.0  0.99071  0.15986  0.21569  1.0000
  I   I340      1.0  0.25674  0.98685  0.43941  1.0000
  I   I341      1.0  0.08453  0.29148  0.28775  1.0000
  I   I342      1.0  0.07692  0.20247  0.83994  1.0000
  I   I343      1.0  0.93943  0.92478  0.21055  1.0000
  I   I344      1.0  0.90053  0.08500  0.68606  1.0000
  I   I345      1.0  0.86879  0.85951  0.67277  1.0000
  I   I346      1.0  0.32162  0.84468  0.17691  1.0000
  I   I347      1.0  0.23144  0.82678  0.87791  1.0000
  I   I348      1.0  0.99309  0.66232  0.89490  1.0000
  I   I349      1.0  0.29319  0.15095  0.24119  1.0000
  I   I350      1.0  0.43281  0.21037  0.14762  1.0000
  I   I351      1.0  0.27902  0.11105  0.48682  1.0000
  I   I352      1.0  0.17836  0.41657  0.22402  1.0000
  I   I353      1.0  0.17413  0.72827  0.08666  1.0000
  I   I354      1.0  0.14666  0.65371  0.50396  1.0000
  I   I355      1.0  0.63548  0.61792  0.70203  1.0000
  I   I356      1.0  0.70456  0.81058  0.85848  1.0000
  I   I357      1.0  0.25674  0.51851  0.71970  1.0000
  I   I358      1.0  0.45878  0.97433  0.60832  1.0000
  I   I359      1.0  0.84497  0.78068  0.97661  1.0000
  I   I360      1.0  0.72309  0.84431  0.27308  1.0000
  I   I361      1.0  0.45488  0.49149  0.78840  1.0000
  I   I362      1.0  0.31879  0.24916  0.81297  1.0000
  I   I363      1.0  0.42127  0.35734  0.08243  1.0000
  I   I364      1.0  0.72579  0.56964  0.69003  1.0000
  I   I365      1.0  0.51598  0.66141  0.01076  1.0000
  I   I366      1.0  0.65522  0.43070  0.85346  1.0000
  I   I367      1.0  0.87719  0.45484  0.90723  1.0000
  I   I368      1.0  0.94091  0.39682  0.17168  1.0000
  I   I369      1.0  0.90975  0.28641  0.80286  1.0000
  I   I370      1.0  0.88782  0.03080  0.03415  1.0000
  I   I371      1.0  0.66606  0.67847  0.00370  1.0000
  I   I372      1.0  0.85989  0.65224  0.45237  1.0000
  I   I373      1.0  0.70048  0.09106  0.19868  1.0000
  I   I374      1.0  0.55611  0.25731  0.25330  1.0000
  I   I375      1.0  0.52593  0.34437  0.00340  1.0000
  I   I376      1.0  0.08846  0.00271  0.91214  1.0000
  I   I377      1.0  0.75784  0.12904  0.57990  1.0000
  I   I378      1.0  0.17739  0.83811  0.34412  1.0000
  I   I379      1.0  0.15855  0.49046  0.60895  1.0000
  I   I380      1.0  0.83392  0.29962  0.91386  1.0000
  I   I381      1.0  0.94624  0.58026  0.42211  1.0000
  I   I382      1.0  0.51691  0.19621  0.77184  1.0000
  I   I383      1.0  0.75292  0.98594  0.62401  1.0000
  I   I384      1.0  0.56778  0.05121  0.91781  1.0000
