data_image0
_chemical_formula_structural       Ti96I384
_chemical_formula_sum              "Ti96 I384"
_cell_length_a       81.3059
_cell_length_b       80.7827
_cell_length_c       39.447
_cell_angle_alpha    88.7757
_cell_angle_beta     88.7757
_cell_angle_gamma    62.1586

_space_group_name_H-M_alt    "P 1"
_space_group_IT_number       1

loop_
  _space_group_symop_operation_xyz
  'x, y, z'

loop_
  _atom_site_type_symbol
  _atom_site_label
  _atom_site_symmetry_multiplicity
  _atom_site_fract_x
  _atom_site_fract_y
  _atom_site_fract_z
  _atom_site_occupancy
  Ti  Ti1       1.0  0.77596  0.31190  0.61003  1.0000
  Ti  Ti2       1.0  0.73701  0.19832  0.45735  1.0000
  Ti  Ti3       1.0  0.98566  0.01063  0.20395  1.0000
  Ti  Ti4       1.0  0.45391  0.81722  0.97667  1.0000
  Ti  Ti5       1.0  0.90716  0.36248  0.61622  1.0000
  Ti  Ti6       1.0  0.18549  0.91711  0.82042  1.0000
  Ti  Ti7       1.0  0.39965  0.45228  0.77385  1.0000
  Ti  Ti8       1.0  0.32033  0.69216  0.26623  1.0000
  Ti  Ti9       1.0  0.94405  0.15131  0.72435  1.0000
  Ti  Ti10      1.0  0.87820  0.25336  0.97274  1.0000
  Ti  Ti11      1.0  0.32958  0.77417  0.56373  1.0000
  Ti  Ti12      1.0  0.49246  0.98865  0.64873  1.0000
  Ti  Ti13      1.0  0.48105  0.58077  0.34580  1.0000
  Ti  Ti14      1.0  0.43446  0.82377  0.88958  1.0000
  Ti  Ti15      1.0  0.55139  0.39373  0.86420  1.0000
  Ti  Ti16      1.0  0.85203  0.75852  0.99611  1.0000
  Ti  Ti17      1.0  0.66735  0.01967  0.62641  1.0000
  Ti  Ti18      1.0  0.45107  0.42961  0.49473  1.0000
  Ti  Ti19      1.0  0.56209  0.10468  0.18815  1.0000
  Ti  Ti20      1.0  0.56329  0.77431  0.05665  1.0000
  Ti  Ti21      1.0  0.16456  0.62033  0.74727  1.0000
  Ti  Ti22      1.0  0.44031  0.22980  0.28053  1.0000
  Ti  Ti23      1.0  0.49512  0.00245  0.09069  1.0000
  Ti  Ti24      1.0  0.89663  0.28014  0.76607  1.0000
  Ti  Ti25      1.0  0.99359  0.94207  0.85681  1.0000
  Ti  Ti26      1.0  0.21937  0.69497  0.89756  1.0000
  Ti  Ti27      1.0  0.97219  0.76836  0.49758  1.0000
  Ti  Ti28      1.0  0.27319  0.25579  0.03961  1.0000
  Ti  Ti29      1.0  0.73430  0.83626  0.22909  1.0000
  Ti  Ti30      1.0  0.53780  0.51453  0.95140  1.0000
  Ti  Ti31      1.0  0.75829  0.94483  0.18163  1.0000
  Ti  Ti32      1.0  0.95110  0.34980  0.79363  1.0000
  Ti  Ti33      1.0  0.88181  0.18449  0.53611  1.0000
  Ti  Ti34      1.0  0.57657  0.71414  0.86863  1.0000
  Ti  Ti35      1.0  0.10633  0.19382  0.06659  1.0000
  Ti  Ti36      1.0  0.29048  0.76675  0.81154  1.0000
  Ti  Ti37      1.0  0.23315  0.95232  0.07334  1.0000
  Ti  Ti38      1.0  0.51488  0.68089  0.65715  1.0000
  Ti  Ti39      1.0  0.83416  0.25929  0.97585  1.0000
  Ti  Ti40      1.0  0.75624  0.95969  0.11735  1.0000
  Ti  Ti41      1.0  0.44178  0.75704  0.45647  1.0000
  Ti  Ti42      1.0  0.34487  0.60992  0.60520  1.0000
  Ti  Ti43      1.0  0.39991  0.63313  0.45043  1.0000
  Ti  Ti44      1.0  0.45126  0.43908  0.08768  1.0000
  Ti  Ti45      1.0  0.78789  0.21220  0.21992  1.0000
  Ti  Ti46      1.0  0.79765  0.66613  0.58115  1.0000
  Ti  Ti47      1.0  0.06656  0.67184  0.51585  1.0000
  Ti  Ti48      1.0  0.38638  0.98284  0.87876  1.0000
  Ti  Ti49      1.0  0.42240  0.92459  0.17574  1.0000
  Ti  Ti50      1.0  0.18583  0.39292  0.77584  1.0000
  Ti  Ti51      1.0  0.46607  0.00124  0.13664  1.0000
  Ti  Ti52      1.0  0.91419  0.40756  0.32700  1.0000
  Ti  Ti53      1.0  0.63648  0.44220  0.64429  1.0000
  Ti  Ti54      1.0  0.75762  0.92191  0.66362  1.0000
  Ti  Ti55      1.0  0.11575  0.72558  0.85959  1.0000
  Ti  Ti56      1.0  0.69100  0.21795  0.73758  1.0000
  Ti  Ti57      1.0  0.93357  0.18708  0.69190  1.0000
  Ti  Ti58      1.0  0.98280  0.76126  0.05297  1.0000
  Ti  Ti59      1.0  0.85429  0.76414  0.89112  1.0000
  Ti  Ti60      1.0  0.54723  0.05520  0.21214  1.0000
  Ti  Ti61      1.0  0.62294  0.25929  0.44424  1.0000
  Ti  Ti62      1.0  0.50945  0.57429  0.43793  1.0000
  Ti  Ti63      1.0  0.25740  0.54354  0.29152  1.0000
  Ti  Ti64      1.0  0.47381  0.42379  0.43198  1.0000
  Ti  Ti65      1.0  0.38531  0.16795  0.63651  1.0000
  Ti  Ti66      1.0  0.01120  0.16455  0.19044  1.0000
  Ti  Ti67      1.0  0.84345  0.81906  0.61422  1.0000
  Ti  Ti68      1.0  0.29890  0.39551  0.97918  1.0000
  Ti  Ti69      1.0  0.19295  0.67332  0.94063  1.0000
  Ti  Ti70      1.0  0.29071  0.94018  0.61719  1.0000
  Ti  Ti71      1.0  0.82731  0.45535  0.19519  1.0000
  Ti  Ti72      1.0  0.33067  0.00004  0.58163  1.0000
  Ti  Ti73      1.0  0.22516  0.80355  0.28348  1.0000
  Ti  Ti74      1.0  0.01193  0.93349  0.00236  1.0000
  Ti  Ti75      1.0  0.40527  0.94429  0.24256  1.0000
  Ti  Ti76      1.0  0.85291  0.60095  0.08596  1.0000
  Ti  Ti77      1.0  0.56783  0.40768  0.91228  1.0000
  Ti  Ti78      1.0  0.82493  0.55036  0.67276  1.0000
  Ti  Ti79      1.0  0.00511  0.86608  0.62481  1.0000
  Ti  Ti80      1.0  0.94477  0.60239  0.18259  1.0000
  Ti  Ti81      1.0  0.56202  0.31805  0.25703  1.0000
  Ti  Ti82      1.0  0.32838  0.81699  0.08984  1.0000
  Ti  Ti83      1.0  0.80588  0.20121  0.30281  1.0000
  Ti  Ti84      1.0  0.31335  0.75789  0.86770  1.0000
  Ti  Ti85      1.0  0.24977  0.95757  0.18818  1.0000
  Ti  Ti86      1.0  0.35963  0.45159  0.78265  1.0000
  Ti  Ti87      1.0  0.04651  0.81211  0.86381  1.0000
  Ti  Ti88      1.0  0.80819  0.14210  0.61673  1.0000
  Ti  Ti89      1.0  0.80977  0.08127  0.34968  1.0000
  Ti  Ti90      1.0  0.68601  0.97414  0.64738  1.0000
  Ti  Ti91      1.0  0.68571  0.37011  0.25134  1.0000
  Ti  Ti92      1.0  0.89009  0.24527  0.30176  1.0000
  Ti  Ti93      1.0  0.68506  0.69200  0.56749  1.0000
  Ti  Ti94      1.0  0.37230  0.99604  0.95500  1.0000
  Ti  Ti95      1.0  0.42094  0.80423  0.64426  1.0000
  Ti  Ti96      1.0  0.87644  0.09804  0.02285  1.0000
  I   I1        1.0  0.08450  0.64640  0.56347  1.0000
  I   I2        1.0  0.47793  0.01170  0.19311  1.0000
  I   I3        1.0  0.39768  0.96800  0.18423  1.0000
  I   I4        1.0  0.64539  0.45316  0.58650  1.0000
  I   I5        1.0  0.21860  0.89488  0.79209  1.0000
  I   I6        1.0  0.75177  0.95639  0.70252  1.0000
  I   I7        1.0  0.32851  0.72126  0.25443  1.0000
  I   I8        1.0  0.66474  0.24269  0.77237  1.0000
  I   I9        1.0  0.96469  0.15869  0.66296  1.0000
  I   I10       1.0  0.74477  0.92930  0.13489  1.0000
  I   I11       1.0  0.31077  0.75602  0.54561  1.0000
  I   I12       1.0  0.88325  0.35492  0.64930  1.0000
  I   I13       1.0  0.47331  0.55522  0.37684  1.0000
  I   I14       1.0  0.28385  0.54046  0.34681  1.0000
  I   I15       1.0  0.53032  0.43257  0.91810  1.0000
  I   I16       1.0  0.73929  0.99708  0.08489  1.0000
  I   I17       1.0  0.02313  0.12876  0.20663  1.0000
  I   I18       1.0  0.43136  0.43654  0.43220  1.0000
  I   I19       1.0  0.26019  0.56854  0.25843  1.0000
  I   I20       1.0  0.32756  0.79619  0.50814  1.0000
  I   I21       1.0  0.32944  0.65787  0.30101  1.0000
  I   I22       1.0  0.52972  0.32577  0.23204  1.0000
  I   I23       1.0  0.83309  0.13227  0.56645  1.0000
  I   I24       1.0  0.31291  0.95560  0.63606  1.0000
  I   I25       1.0  0.00273  0.93032  0.92009  1.0000
  I   I26       1.0  0.40981  0.91775  0.12672  1.0000
  I   I27       1.0  0.11425  0.16305  0.03563  1.0000
  I   I28       1.0  0.29177  0.26851  0.07007  1.0000
  I   I29       1.0  0.81398  0.53013  0.63411  1.0000
  I   I30       1.0  0.56604  0.52000  0.92311  1.0000
  I   I31       1.0  0.92185  0.58677  0.18363  1.0000
  I   I32       1.0  0.58059  0.32751  0.21591  1.0000
  I   I33       1.0  0.02860  0.85798  0.56574  1.0000
  I   I34       1.0  0.12583  0.20811  0.03919  1.0000
  I   I35       1.0  0.34455  0.75403  0.88071  1.0000
  I   I36       1.0  0.54511  0.71906  0.86160  1.0000
  I   I37       1.0  0.19384  0.96156  0.06753  1.0000
  I   I38       1.0  0.80807  0.27588  0.93368  1.0000
  I   I39       1.0  0.22792  0.96111  0.23868  1.0000
  I   I40       1.0  0.42197  0.44779  0.05764  1.0000
  I   I41       1.0  0.17418  0.37386  0.81552  1.0000
  I   I42       1.0  0.72107  0.97528  0.15457  1.0000
  I   I43       1.0  0.01072  0.73259  0.01776  1.0000
  I   I44       1.0  0.77685  0.24671  0.19437  1.0000
  I   I45       1.0  0.78384  0.20000  0.35751  1.0000
  I   I46       1.0  0.45075  0.77363  0.65298  1.0000
  I   I47       1.0  0.08515  0.64647  0.46451  1.0000
  I   I48       1.0  0.38839  0.96109  0.93530  1.0000
  I   I49       1.0  0.40307  0.91337  0.22546  1.0000
  I   I50       1.0  0.73283  0.17905  0.40236  1.0000
  I   I51       1.0  0.52581  0.98153  0.12779  1.0000
  I   I52       1.0  0.93682  0.63122  0.22077  1.0000
  I   I53       1.0  0.63433  0.43182  0.72146  1.0000
  I   I54       1.0  0.77337  0.89628  0.70619  1.0000
  I   I55       1.0  0.35302  0.44715  0.84725  1.0000
  I   I56       1.0  0.15678  0.62193  0.68070  1.0000
  I   I57       1.0  0.40206  0.80488  0.69892  1.0000
  I   I58       1.0  0.89367  0.26729  0.00764  1.0000
  I   I59       1.0  0.82619  0.77461  0.94611  1.0000
  I   I60       1.0  0.58470  0.03573  0.22421  1.0000
  I   I61       1.0  0.49364  0.55470  0.46828  1.0000
  I   I62       1.0  0.45425  0.60956  0.32357  1.0000
  I   I63       1.0  0.58846  0.75055  0.01089  1.0000
  I   I64       1.0  0.86369  0.77915  0.94589  1.0000
  I   I65       1.0  0.76867  0.95756  0.05344  1.0000
  I   I66       1.0  0.23845  0.28264  0.02404  1.0000
  I   I67       1.0  0.55006  0.07962  0.15710  1.0000
  I   I68       1.0  0.56813  0.77017  0.12006  1.0000
  I   I69       1.0  0.23331  0.71868  0.90960  1.0000
  I   I70       1.0  0.31553  0.90795  0.65579  1.0000
  I   I71       1.0  0.43758  0.00647  0.17574  1.0000
  I   I72       1.0  0.31914  0.03458  0.56563  1.0000
  I   I73       1.0  0.97906  0.77532  0.43121  1.0000
  I   I74       1.0  0.18967  0.72173  0.87230  1.0000
  I   I75       1.0  0.15869  0.67850  0.95175  1.0000
  I   I76       1.0  0.58212  0.41189  0.96416  1.0000
  I   I77       1.0  0.56200  0.41931  0.82841  1.0000
  I   I78       1.0  0.76088  0.97899  0.18293  1.0000
  I   I79       1.0  0.88989  0.15775  0.49551  1.0000
  I   I80       1.0  0.76841  0.30762  0.55038  1.0000
  I   I81       1.0  0.92116  0.34726  0.78508  1.0000
  I   I82       1.0  0.34775  0.78613  0.05815  1.0000
  I   I83       1.0  0.76637  0.21239  0.27208  1.0000
  I   I84       1.0  0.27725  0.75728  0.86580  1.0000
  I   I85       1.0  0.28326  0.92902  0.20771  1.0000
  I   I86       1.0  0.26775  0.22663  0.06315  1.0000
  I   I87       1.0  0.85637  0.23516  0.93553  1.0000
  I   I88       1.0  0.84744  0.26362  0.04410  1.0000
  I   I89       1.0  0.59409  0.71966  0.81363  1.0000
  I   I90       1.0  0.21421  0.37871  0.73194  1.0000
  I   I91       1.0  0.71014  0.36668  0.20563  1.0000
  I   I92       1.0  0.91785  0.21649  0.27447  1.0000
  I   I93       1.0  0.47857  0.40725  0.06578  1.0000
  I   I94       1.0  0.38596  0.01469  0.90871  1.0000
  I   I95       1.0  0.78558  0.65286  0.62455  1.0000
  I   I96       1.0  0.42091  0.26087  0.23802  1.0000
  I   I97       1.0  0.98177  0.98610  0.16950  1.0000
  I   I98       1.0  0.80981  0.29000  0.63783  1.0000
  I   I99       1.0  0.73421  0.17256  0.49562  1.0000
  I   I100      1.0  0.42179  0.82874  0.82308  1.0000
  I   I101      1.0  0.80400  0.12346  0.67135  1.0000
  I   I102      1.0  0.88575  0.39918  0.60447  1.0000
  I   I103      1.0  0.38985  0.42339  0.80113  1.0000
  I   I104      1.0  0.09247  0.72129  0.90056  1.0000
  I   I105      1.0  0.43462  0.78643  0.49239  1.0000
  I   I106      1.0  0.52884  0.96872  0.63526  1.0000
  I   I107      1.0  0.85161  0.28404  0.94251  1.0000
  I   I108      1.0  0.46610  0.02348  0.67399  1.0000
  I   I109      1.0  0.55537  0.36744  0.82461  1.0000
  I   I110      1.0  0.53381  0.58506  0.41554  1.0000
  I   I111      1.0  0.54474  0.81307  0.04743  1.0000
  I   I112      1.0  0.50336  0.39880  0.45826  1.0000
  I   I113      1.0  0.38737  0.15270  0.57649  1.0000
  I   I114      1.0  0.64421  0.03088  0.57820  1.0000
  I   I115      1.0  0.83183  0.80837  0.66509  1.0000
  I   I116      1.0  0.84789  0.84619  0.64013  1.0000
  I   I117      1.0  0.30992  0.41011  0.92869  1.0000
  I   I118      1.0  0.89442  0.08092  0.07800  1.0000
  I   I119      1.0  0.87999  0.79541  0.61593  1.0000
  I   I120      1.0  0.07931  0.69361  0.50388  1.0000
  I   I121      1.0  0.21323  0.78057  0.25806  1.0000
  I   I122      1.0  0.96495  0.93677  0.85053  1.0000
  I   I123      1.0  0.43845  0.94252  0.24569  1.0000
  I   I124      1.0  0.51729  0.51005  0.90978  1.0000
  I   I125      1.0  0.88516  0.58832  0.06148  1.0000
  I   I126      1.0  0.80733  0.54787  0.72858  1.0000
  I   I127      1.0  0.87566  0.21622  0.50423  1.0000
  I   I128      1.0  0.46154  0.82859  0.86224  1.0000
  I   I129      1.0  0.52533  0.99658  0.05064  1.0000
  I   I130      1.0  0.30395  0.78071  0.75954  1.0000
  I   I131      1.0  0.35012  0.81840  0.13735  1.0000
  I   I132      1.0  0.06931  0.21638  0.07398  1.0000
  I   I133      1.0  0.89248  0.21981  0.00548  1.0000
  I   I134      1.0  0.53823  0.69869  0.64022  1.0000
  I   I135      1.0  0.01764  0.18256  0.24039  1.0000
  I   I136      1.0  0.33161  0.59781  0.55820  1.0000
  I   I137      1.0  0.90998  0.42723  0.38673  1.0000
  I   I138      1.0  0.84283  0.07908  0.33125  1.0000
  I   I139      1.0  0.70816  0.34856  0.30316  1.0000
  I   I140      1.0  0.86686  0.23848  0.26910  1.0000
  I   I141      1.0  0.65540  0.69382  0.54064  1.0000
  I   I142      1.0  0.39954  0.98432  0.99640  1.0000
  I   I143      1.0  0.01204  0.98777  0.24974  1.0000
  I   I144      1.0  0.42714  0.24427  0.33967  1.0000
  I   I145      1.0  0.79365  0.33325  0.59694  1.0000
  I   I146      1.0  0.71231  0.23018  0.47831  1.0000
  I   I147      1.0  0.96964  0.00824  0.26008  1.0000
  I   I148      1.0  0.88066  0.42213  0.30339  1.0000
  I   I149      1.0  0.90727  0.34449  0.55854  1.0000
  I   I150      1.0  0.19689  0.92547  0.87418  1.0000
  I   I151      1.0  0.10242  0.74769  0.80288  1.0000
  I   I152      1.0  0.30760  0.68703  0.21128  1.0000
  I   I153      1.0  0.91648  0.20665  0.63669  1.0000
  I   I154      1.0  0.41076  0.60325  0.48575  1.0000
  I   I155      1.0  0.33137  0.76766  0.62761  1.0000
  I   I156      1.0  0.55164  0.03345  0.16333  1.0000
  I   I157      1.0  0.55797  0.37991  0.93249  1.0000
  I   I158      1.0  0.22186  0.55610  0.28352  1.0000
  I   I159      1.0  0.59531  0.28385  0.40487  1.0000
  I   I160      1.0  0.47928  0.44136  0.37906  1.0000
  I   I161      1.0  0.68732  0.94756  0.60894  1.0000
  I   I162      1.0  0.47398  0.41450  0.54962  1.0000
  I   I163      1.0  0.53071  0.13707  0.18459  1.0000
  I   I164      1.0  0.77660  0.67839  0.53327  1.0000
  I   I165      1.0  0.16139  0.65337  0.74579  1.0000
  I   I166      1.0  0.87398  0.07076  0.98790  1.0000
  I   I167      1.0  0.54977  0.32731  0.31820  1.0000
  I   I168      1.0  0.92752  0.26528  0.79782  1.0000
  I   I169      1.0  0.03932  0.90230  0.98930  1.0000
  I   I170      1.0  0.97864  0.93390  0.01656  1.0000
  I   I171      1.0  0.97935  0.73696  0.47928  1.0000
  I   I172      1.0  0.83887  0.57718  0.07065  1.0000
  I   I173      1.0  0.71926  0.82028  0.26157  1.0000
  I   I174      1.0  0.55005  0.49270  0.01024  1.0000
  I   I175      1.0  0.78882  0.93505  0.13831  1.0000
  I   I176      1.0  0.93503  0.38114  0.82751  1.0000
  I   I177      1.0  0.96937  0.87926  0.64785  1.0000
  I   I178      1.0  0.31537  0.84351  0.04867  1.0000
  I   I179      1.0  0.77718  0.19982  0.16406  1.0000
  I   I180      1.0  0.23630  0.92231  0.04313  1.0000
  I   I181      1.0  0.49009  0.98235  0.58562  1.0000
  I   I182      1.0  0.37127  0.46130  0.72142  1.0000
  I   I183      1.0  0.05833  0.83328  0.82227  1.0000
  I   I184      1.0  0.80832  0.17347  0.63683  1.0000
  I   I185      1.0  0.79622  0.06482  0.30442  1.0000
  I   I186      1.0  0.34651  0.58784  0.65388  1.0000
  I   I187      1.0  0.89013  0.27774  0.29901  1.0000
  I   I188      1.0  0.46588  0.46188  0.08882  1.0000
  I   I189      1.0  0.03477  0.82098  0.92471  1.0000
  I   I190      1.0  0.82718  0.63543  0.56475  1.0000
  I   I191      1.0  0.68625  0.99900  0.69673  1.0000
  I   I192      1.0  0.99734  0.03826  0.22770  1.0000
  I   I193      1.0  0.85927  0.52829  0.69415  1.0000
  I   I194      1.0  0.52936  0.77620  0.04941  1.0000
  I   I195      1.0  0.96711  0.04258  0.17184  1.0000
  I   I196      1.0  0.46066  0.83075  0.02756  1.0000
  I   I197      1.0  0.96375  0.74408  0.06830  1.0000
  I   I198      1.0  0.18274  0.94498  0.77725  1.0000
  I   I199      1.0  0.96245  0.32968  0.84675  1.0000
  I   I200      1.0  0.69494  0.23961  0.69258  1.0000
  I   I201      1.0  0.92201  0.15567  0.67436  1.0000
  I   I202      1.0  0.86016  0.73159  0.95401  1.0000
  I   I203      1.0  0.19433  0.65744  0.87921  1.0000
  I   I204      1.0  0.49216  0.95951  0.69420  1.0000
  I   I205      1.0  0.49081  0.57030  0.28323  1.0000
  I   I206      1.0  0.39663  0.84619  0.90027  1.0000
  I   I207      1.0  0.51582  0.41320  0.85031  1.0000
  I   I208      1.0  0.87768  0.75470  0.04645  1.0000
  I   I209      1.0  0.72016  0.94112  0.67239  1.0000
  I   I210      1.0  0.01547  0.82961  0.63588  1.0000
  I   I211      1.0  0.29061  0.93266  0.55596  1.0000
  I   I212      1.0  0.27270  0.51391  0.25094  1.0000
  I   I213      1.0  0.20290  0.64433  0.98047  1.0000
  I   I214      1.0  0.47305  0.22050  0.29775  1.0000
  I   I215      1.0  0.47299  0.98095  0.07449  1.0000
  I   I216      1.0  0.71271  0.69050  0.52501  1.0000
  I   I217      1.0  0.98130  0.97545  0.82875  1.0000
  I   I218      1.0  0.40350  0.94407  0.31160  1.0000
  I   I219      1.0  0.24734  0.79116  0.23300  1.0000
  I   I220      1.0  0.60578  0.37752  0.89165  1.0000
  I   I221      1.0  0.73390  0.82923  0.16404  1.0000
  I   I222      1.0  0.85123  0.61645  0.13661  1.0000
  I   I223      1.0  0.77452  0.91736  0.22049  1.0000
  I   I224      1.0  0.97773  0.35700  0.77266  1.0000
  I   I225      1.0  0.84895  0.19523  0.56161  1.0000
  I   I226      1.0  0.30592  0.70595  0.32529  1.0000
  I   I227      1.0  0.11166  0.18636  0.13554  1.0000
  I   I228      1.0  0.28916  0.79881  0.83909  1.0000
  I   I229      1.0  0.96717  0.78816  0.01447  1.0000
  I   I230      1.0  0.48079  0.69159  0.66908  1.0000
  I   I231      1.0  0.90234  0.23267  0.91998  1.0000
  I   I232      1.0  0.43584  0.84717  0.93953  1.0000
  I   I233      1.0  0.43599  0.74231  0.51707  1.0000
  I   I234      1.0  0.68443  0.03939  0.60519  1.0000
  I   I235      1.0  0.36732  0.66011  0.47116  1.0000
  I   I236      1.0  0.69563  0.65639  0.58615  1.0000
  I   I237      1.0  0.66906  0.35050  0.24295  1.0000
  I   I238      1.0  0.43855  0.82486  0.65757  1.0000
  I   I239      1.0  0.89031  0.10570  0.96224  1.0000
  I   I240      1.0  0.34691  0.00208  0.90296  1.0000
  I   I241      1.0  0.74675  0.34499  0.63119  1.0000
  I   I242      1.0  0.76819  0.19829  0.45564  1.0000
  I   I243      1.0  0.33352  0.36899  0.98188  1.0000
  I   I244      1.0  0.77892  0.15955  0.57461  1.0000
  I   I245      1.0  0.67010  0.41415  0.65884  1.0000
  I   I246      1.0  0.14749  0.93362  0.83231  1.0000
  I   I247      1.0  0.42121  0.45002  0.82197  1.0000
  I   I248      1.0  0.13523  0.62028  0.77938  1.0000
  I   I249      1.0  0.92945  0.18739  0.75773  1.0000
  I   I250      1.0  0.88837  0.75985  0.87344  1.0000
  I   I251      1.0  0.29173  0.80494  0.56914  1.0000
  I   I252      1.0  0.59162  0.09503  0.22887  1.0000
  I   I253      1.0  0.48312  0.59990  0.40405  1.0000
  I   I254      1.0  0.43900  0.79524  0.00053  1.0000
  I   I255      1.0  0.65671  0.25283  0.41982  1.0000
  I   I256      1.0  0.36623  0.19668  0.67824  1.0000
  I   I257      1.0  0.22406  0.97360  0.01891  1.0000
  I   I258      1.0  0.41367  0.44639  0.52349  1.0000
  I   I259      1.0  0.82993  0.82498  0.55156  1.0000
  I   I260      1.0  0.81651  0.68227  0.59727  1.0000
  I   I261      1.0  0.18923  0.60540  0.79766  1.0000
  I   I262      1.0  0.42345  0.21097  0.26621  1.0000
  I   I263      1.0  0.81943  0.44730  0.25407  1.0000
  I   I264      1.0  0.25510  0.78281  0.77299  1.0000
  I   I265      1.0  0.01864  0.96084  0.99289  1.0000
  I   I266      1.0  0.23119  0.65636  0.92330  1.0000
  I   I267      1.0  0.25011  0.80540  0.32616  1.0000
  I   I268      1.0  0.03035  0.15828  0.13693  1.0000
  I   I269      1.0  0.81740  0.58394  0.65303  1.0000
  I   I270      1.0  0.28000  0.24348  0.97867  1.0000
  I   I271      1.0  0.72777  0.95661  0.23558  1.0000
  I   I272      1.0  0.58596  0.28351  0.25466  1.0000
  I   I273      1.0  0.91069  0.18390  0.56135  1.0000
  I   I274      1.0  0.42755  0.75921  0.39957  1.0000
  I   I275      1.0  0.00130  0.76909  0.53146  1.0000
  I   I276      1.0  0.30102  0.76743  0.92792  1.0000
  I   I277      1.0  0.30273  0.80442  0.09392  1.0000
  I   I278      1.0  0.52809  0.64621  0.61940  1.0000
  I   I279      1.0  0.43542  0.44506  0.15169  1.0000
  I   I280      1.0  0.93272  0.42231  0.28952  1.0000
  I   I281      1.0  0.47648  0.73292  0.43223  1.0000
  I   I282      1.0  0.33500  0.64249  0.62371  1.0000
  I   I283      1.0  0.42175  0.64423  0.46962  1.0000
  I   I284      1.0  0.90330  0.25056  0.72421  1.0000
  I   I285      1.0  0.01608  0.81994  0.83322  1.0000
  I   I286      1.0  0.40146  0.80351  0.59575  1.0000
  I   I287      1.0  0.29628  0.00596  0.58945  1.0000
  I   I288      1.0  0.42167  0.97132  0.85839  1.0000
  I   I289      1.0  0.41204  0.62649  0.38913  1.0000
  I   I290      1.0  0.65219  0.98386  0.67688  1.0000
  I   I291      1.0  0.47352  0.03516  0.11861  1.0000
  I   I292      1.0  0.93360  0.37633  0.29628  1.0000
  I   I293      1.0  0.62353  0.41770  0.62478  1.0000
  I   I294      1.0  0.78604  0.92742  0.64216  1.0000
  I   I295      1.0  0.34786  0.43033  0.74281  1.0000
  I   I296      1.0  0.73172  0.19280  0.73759  1.0000
  I   I297      1.0  0.95695  0.11392  0.71982  1.0000
  I   I298      1.0  0.99168  0.78630  0.08118  1.0000
  I   I299      1.0  0.83888  0.79405  0.85317  1.0000
  I   I300      1.0  0.67097  0.70427  0.62789  1.0000
  I   I301      1.0  0.63572  0.22425  0.46737  1.0000
  I   I302      1.0  0.50907  0.58290  0.50079  1.0000
  I   I303      1.0  0.41913  0.16683  0.62809  1.0000
  I   I304      1.0  0.46016  0.39717  0.46396  1.0000
  I   I305      1.0  0.83135  0.79007  0.03848  1.0000
  I   I306      1.0  0.39613  0.48427  0.74911  1.0000
  I   I307      1.0  0.22505  0.96868  0.13597  1.0000
  I   I308      1.0  0.16026  0.42435  0.74846  1.0000
  I   I309      1.0  0.35900  0.68368  0.27602  1.0000
  I   I310      1.0  0.44218  0.93749  0.14376  1.0000
  I   I311      1.0  0.82297  0.48907  0.19677  1.0000
  I   I312      1.0  0.03340  0.67785  0.48752  1.0000
  I   I313      1.0  0.20867  0.83889  0.26000  1.0000
  I   I314      1.0  0.02635  0.92175  0.82433  1.0000
  I   I315      1.0  0.36276  0.96089  0.26465  1.0000
  I   I316      1.0  0.83114  0.62553  0.04207  1.0000
  I   I317      1.0  0.97419  0.18112  0.21527  1.0000
  I   I318      1.0  0.71769  0.87038  0.25107  1.0000
  I   I319      1.0  0.00119  0.89551  0.58666  1.0000
  I   I320      1.0  0.48476  0.80632  0.94057  1.0000
  I   I321      1.0  0.12577  0.69471  0.82207  1.0000
  I   I322      1.0  0.58119  0.73147  0.91837  1.0000
  I   I323      1.0  0.82180  0.21340  0.26144  1.0000
  I   I324      1.0  0.32454  0.73287  0.81045  1.0000
  I   I325      1.0  0.26580  0.92975  0.11322  1.0000
  I   I326      1.0  0.43099  0.42641  0.73807  1.0000
  I   I327      1.0  0.83476  0.17530  0.33068  1.0000
  I   I328      1.0  0.82699  0.23166  0.00464  1.0000
  I   I329      1.0  0.77632  0.11379  0.33769  1.0000
  I   I330      1.0  0.69939  0.99211  0.60459  1.0000
  I   I331      1.0  0.05007  0.77645  0.87291  1.0000
  I   I332      1.0  0.63902  0.04229  0.65853  1.0000
  I   I333      1.0  0.59081  0.67787  0.88608  1.0000
  I   I334      1.0  0.34971  0.02273  0.99831  1.0000
  I   I335      1.0  0.29012  0.41072  0.03853  1.0000
  I   I336      1.0  0.84474  0.12411  0.05488  1.0000
  I   I337      1.0  0.45363  0.89460  0.18425  1.0000
  I   I338      1.0  0.20611  0.39903  0.81427  1.0000
  I   I339      1.0  0.49075  0.96784  0.16363  1.0000
  I   I340      1.0  0.97008  0.57299  0.22303  1.0000
  I   I341      1.0  0.88118  0.26792  0.81513  1.0000
  I   I342      1.0  0.75555  0.90557  0.60347  1.0000
  I   I343      1.0  0.13794  0.73496  0.88127  1.0000
  I   I344      1.0  0.67976  0.19495  0.72797  1.0000
  I   I345      1.0  0.96065  0.19453  0.71171  1.0000
  I   I346      1.0  0.25960  0.94377  0.64628  1.0000
  I   I347      1.0  0.85916  0.74265  0.83791  1.0000
  I   I348      1.0  0.55104  0.08733  0.24375  1.0000
  I   I349      1.0  0.61440  0.27429  0.50080  1.0000
  I   I350      1.0  0.51490  0.55073  0.37493  1.0000
  I   I351      1.0  0.45214  0.78801  0.89900  1.0000
  I   I352      1.0  0.47024  0.45245  0.47179  1.0000
  I   I353      1.0  0.39904  0.14396  0.68795  1.0000
  I   I354      1.0  0.32498  0.48453  0.79403  1.0000
  I   I355      1.0  0.57227  0.10209  0.12534  1.0000
  I   I356      1.0  0.27890  0.38143  0.95440  1.0000
  I   I357      1.0  0.23222  0.69113  0.83371  1.0000
  I   I358      1.0  0.93597  0.33620  0.63656  1.0000
  I   I359      1.0  0.83423  0.44252  0.13426  1.0000
  I   I360      1.0  0.33891  0.97363  0.53536  1.0000
  I   I361      1.0  0.93632  0.78685  0.51009  1.0000
  I   I362      1.0  0.01099  0.93409  0.07342  1.0000
  I   I363      1.0  0.19253  0.70444  0.96626  1.0000
  I   I364      1.0  0.51278  0.54185  0.98008  1.0000
  I   I365      1.0  0.59696  0.46113  0.65163  1.0000
  I   I366      1.0  0.76498  0.83428  0.24542  1.0000
  I   I367      1.0  0.03774  0.86118  0.65237  1.0000
  I   I368      1.0  0.95519  0.59209  0.12062  1.0000
  I   I369      1.0  0.47506  0.01767  0.03099  1.0000
  I   I370      1.0  0.97396  0.13613  0.76748  1.0000
  I   I371      1.0  0.80076  0.22911  0.35167  1.0000
  I   I372      1.0  0.88661  0.31761  0.76373  1.0000
  I   I373      1.0  0.26302  0.97851  0.20637  1.0000
  I   I374      1.0  0.54244  0.66980  0.69924  1.0000
  I   I375      1.0  0.81124  0.17422  0.23171  1.0000
  I   I376      1.0  0.86260  0.43197  0.21327  1.0000
  I   I377      1.0  0.81208  0.06216  0.41124  1.0000
  I   I378      1.0  0.37894  0.58972  0.59522  1.0000
  I   I379      1.0  0.65558  0.40484  0.25305  1.0000
  I   I380      1.0  0.88769  0.22859  0.35486  1.0000
  I   I381      1.0  0.51923  0.05400  0.24792  1.0000
  I   I382      1.0  0.37884  0.97701  0.81797  1.0000
  I   I383      1.0  0.36601  0.75995  0.58547  1.0000
  I   I384      1.0  0.35074  0.98244  0.63013  1.0000
