data_image0
_chemical_formula_structural       Ti96I384
_chemical_formula_sum              "Ti96 I384"
_cell_length_a       76.7417
_cell_length_b       76.8074
_cell_length_c       37.5399
_cell_angle_alpha    88.7757
_cell_angle_beta     88.7757
_cell_angle_gamma    62.1586

_space_group_name_H-M_alt    "P 1"
_space_group_IT_number       1

loop_
  _space_group_symop_operation_xyz
  'x, y, z'

loop_
  _atom_site_type_symbol
  _atom_site_label
  _atom_site_symmetry_multiplicity
  _atom_site_fract_x
  _atom_site_fract_y
  _atom_site_fract_z
  _atom_site_occupancy
  Ti  Ti1       1.0  0.93213  0.79723  0.55433  1.0000
  Ti  Ti2       1.0  0.52890  0.74915  0.71323  1.0000
  Ti  Ti3       1.0  0.07366  0.20857  0.54103  1.0000
  Ti  Ti4       1.0  0.18785  0.19025  0.80989  1.0000
  Ti  Ti5       1.0  0.43027  0.03148  0.59399  1.0000
  Ti  Ti6       1.0  0.59255  0.55948  0.12515  1.0000
  Ti  Ti7       1.0  0.82557  0.81826  0.19659  1.0000
  Ti  Ti8       1.0  0.12304  0.02264  0.56925  1.0000
  Ti  Ti9       1.0  0.07668  0.48987  0.71254  1.0000
  Ti  Ti10      1.0  0.61171  0.62406  0.47156  1.0000
  Ti  Ti11      1.0  0.05976  0.94501  0.01043  1.0000
  Ti  Ti12      1.0  0.72248  0.85944  0.19490  1.0000
  Ti  Ti13      1.0  0.98347  0.56459  0.84465  1.0000
  Ti  Ti14      1.0  0.23392  0.19843  0.77700  1.0000
  Ti  Ti15      1.0  0.86884  0.28021  0.21775  1.0000
  Ti  Ti16      1.0  0.15622  0.89972  0.66997  1.0000
  Ti  Ti17      1.0  0.32931  0.50451  0.46091  1.0000
  Ti  Ti18      1.0  0.71508  0.17353  0.85752  1.0000
  Ti  Ti19      1.0  0.54976  0.30750  0.83673  1.0000
  Ti  Ti20      1.0  0.05668  0.72433  0.81770  1.0000
  Ti  Ti21      1.0  0.12652  0.01737  0.64635  1.0000
  Ti  Ti22      1.0  0.55484  0.46034  0.60979  1.0000
  Ti  Ti23      1.0  0.21482  0.53002  0.54391  1.0000
  Ti  Ti24      1.0  0.56029  0.27617  0.48586  1.0000
  Ti  Ti25      1.0  0.75323  0.41449  0.13143  1.0000
  Ti  Ti26      1.0  0.11413  0.74612  0.50111  1.0000
  Ti  Ti27      1.0  0.71262  0.80272  0.96837  1.0000
  Ti  Ti28      1.0  0.40381  0.00040  0.03757  1.0000
  Ti  Ti29      1.0  0.99892  0.98911  0.73804  1.0000
  Ti  Ti30      1.0  0.15955  0.21027  0.20260  1.0000
  Ti  Ti31      1.0  0.80932  0.21237  0.22032  1.0000
  Ti  Ti32      1.0  0.47355  0.71691  0.16427  1.0000
  Ti  Ti33      1.0  0.54851  0.31797  0.06691  1.0000
  Ti  Ti34      1.0  0.72337  0.44838  0.55441  1.0000
  Ti  Ti35      1.0  0.65762  0.84181  0.09860  1.0000
  Ti  Ti36      1.0  0.29059  0.21900  0.56197  1.0000
  Ti  Ti37      1.0  0.26635  0.30253  0.71389  1.0000
  Ti  Ti38      1.0  0.41082  0.37057  0.84173  1.0000
  Ti  Ti39      1.0  0.91336  0.35330  0.59612  1.0000
  Ti  Ti40      1.0  0.63925  0.64399  0.53162  1.0000
  Ti  Ti41      1.0  0.89848  0.70148  0.03706  1.0000
  Ti  Ti42      1.0  0.90289  0.69882  0.49730  1.0000
  Ti  Ti43      1.0  0.10636  0.82171  0.26724  1.0000
  Ti  Ti44      1.0  0.87971  0.30118  0.54427  1.0000
  Ti  Ti45      1.0  0.79711  0.59014  0.35024  1.0000
  Ti  Ti46      1.0  0.82547  0.43229  0.95551  1.0000
  Ti  Ti47      1.0  0.87606  0.04382  0.90180  1.0000
  Ti  Ti48      1.0  0.94910  0.96406  0.46629  1.0000
  Ti  Ti49      1.0  0.08849  0.85470  0.21856  1.0000
  Ti  Ti50      1.0  0.99924  0.50999  0.97341  1.0000
  Ti  Ti51      1.0  0.53442  0.78903  0.62929  1.0000
  Ti  Ti52      1.0  0.42303  0.47870  0.31997  1.0000
  Ti  Ti53      1.0  0.38244  0.67938  0.68769  1.0000
  Ti  Ti54      1.0  0.37551  0.88810  0.83934  1.0000
  Ti  Ti55      1.0  0.55185  0.67912  0.91758  1.0000
  Ti  Ti56      1.0  0.80414  0.97264  0.80564  1.0000
  Ti  Ti57      1.0  0.08774  0.45059  0.70342  1.0000
  Ti  Ti58      1.0  0.42369  0.19370  0.37626  1.0000
  Ti  Ti59      1.0  0.15671  0.87896  0.78881  1.0000
  Ti  Ti60      1.0  0.86248  0.18840  0.98287  1.0000
  Ti  Ti61      1.0  0.61317  0.13533  0.32429  1.0000
  Ti  Ti62      1.0  0.96290  0.54063  0.76618  1.0000
  Ti  Ti63      1.0  0.01249  0.75331  0.77895  1.0000
  Ti  Ti64      1.0  0.73860  0.16777  0.92146  1.0000
  Ti  Ti65      1.0  0.27889  0.37524  0.79768  1.0000
  Ti  Ti66      1.0  0.39335  0.99969  0.11004  1.0000
  Ti  Ti67      1.0  0.30526  0.30943  0.23154  1.0000
  Ti  Ti68      1.0  0.78524  0.10116  0.34227  1.0000
  Ti  Ti69      1.0  0.05840  0.76779  0.52368  1.0000
  Ti  Ti70      1.0  0.25008  0.01530  0.52495  1.0000
  Ti  Ti71      1.0  0.21861  0.61864  0.37923  1.0000
  Ti  Ti72      1.0  0.89149  0.99597  0.87424  1.0000
  Ti  Ti73      1.0  0.64045  0.36925  0.32209  1.0000
  Ti  Ti74      1.0  0.69157  0.45602  0.09690  1.0000
  Ti  Ti75      1.0  0.92901  0.70072  0.25966  1.0000
  Ti  Ti76      1.0  0.63169  0.03501  0.41959  1.0000
  Ti  Ti77      1.0  0.91026  0.24660  0.21232  1.0000
  Ti  Ti78      1.0  0.95678  0.04635  0.68874  1.0000
  Ti  Ti79      1.0  0.45487  0.88352  0.38552  1.0000
  Ti  Ti80      1.0  0.74067  0.77008  0.66856  1.0000
  Ti  Ti81      1.0  0.18299  0.51085  0.49595  1.0000
  Ti  Ti82      1.0  0.68180  0.58030  0.66746  1.0000
  Ti  Ti83      1.0  0.88981  0.52172  0.22635  1.0000
  Ti  Ti84      1.0  0.27414  0.27539  0.49784  1.0000
  Ti  Ti85      1.0  0.22658  0.32939  0.66502  1.0000
  Ti  Ti86      1.0  0.79995  0.80233  0.10370  1.0000
  Ti  Ti87      1.0  0.67632  0.72206  0.40263  1.0000
  Ti  Ti88      1.0  0.10868  0.79522  0.69133  1.0000
  Ti  Ti89      1.0  0.96797  0.61673  0.45647  1.0000
  Ti  Ti90      1.0  0.17050  0.31413  0.97663  1.0000
  Ti  Ti91      1.0  0.72971  0.19668  0.61094  1.0000
  Ti  Ti92      1.0  0.30554  0.57948  0.18301  1.0000
  Ti  Ti93      1.0  0.34767  0.56030  0.70876  1.0000
  Ti  Ti94      1.0  0.95687  0.94171  0.53492  1.0000
  Ti  Ti95      1.0  0.46188  0.15437  0.82773  1.0000
  Ti  Ti96      1.0  0.50233  0.45250  0.62156  1.0000
  I   I1        1.0  0.86636  0.98295  0.85006  1.0000
  I   I2        1.0  0.54684  0.76835  0.57038  1.0000
  I   I3        1.0  0.06036  0.85865  0.17055  1.0000
  I   I4        1.0  0.36191  0.66038  0.68739  1.0000
  I   I5        1.0  0.57686  0.59727  0.11573  1.0000
  I   I6        1.0  0.36668  0.87940  0.77755  1.0000
  I   I7        1.0  0.16303  0.01089  0.67189  1.0000
  I   I8        1.0  0.77134  0.99718  0.83015  1.0000
  I   I9        1.0  0.04626  0.48430  0.74597  1.0000
  I   I10       1.0  0.65517  0.66934  0.52102  1.0000
  I   I11       1.0  0.09816  0.92701  0.00113  1.0000
  I   I12       1.0  0.41999  0.05866  0.64562  1.0000
  I   I13       1.0  0.96750  0.50570  0.77518  1.0000
  I   I14       1.0  0.04893  0.74344  0.74226  1.0000
  I   I15       1.0  0.87772  0.27350  0.14609  1.0000
  I   I16       1.0  0.60140  0.67980  0.53816  1.0000
  I   I17       1.0  0.36673  0.00631  0.04987  1.0000
  I   I18       1.0  0.71667  0.14356  0.90649  1.0000
  I   I19       1.0  0.08550  0.69319  0.78954  1.0000
  I   I20       1.0  0.04795  0.98177  0.99922  1.0000
  I   I21       1.0  0.12769  0.00927  0.50149  1.0000
  I   I22       1.0  0.25081  0.50223  0.53140  1.0000
  I   I23       1.0  0.07052  0.79901  0.67461  1.0000
  I   I24       1.0  0.27876  0.99346  0.47288  1.0000
  I   I25       1.0  0.77222  0.42212  0.08156  1.0000
  I   I26       1.0  0.91734  0.67325  0.23337  1.0000
  I   I27       1.0  0.68701  0.80980  0.02017  1.0000
  I   I28       1.0  0.43127  0.01004  0.00265  1.0000
  I   I29       1.0  0.99560  0.02742  0.71902  1.0000
  I   I30       1.0  0.13617  0.22557  0.14271  1.0000
  I   I31       1.0  0.72912  0.80681  0.69050  1.0000
  I   I32       1.0  0.16565  0.52597  0.43328  1.0000
  I   I33       1.0  0.46761  0.90419  0.33906  1.0000
  I   I34       1.0  0.67668  0.85820  0.06008  1.0000
  I   I35       1.0  0.26819  0.28235  0.43048  1.0000
  I   I36       1.0  0.72986  0.41520  0.52255  1.0000
  I   I37       1.0  0.20634  0.36572  0.63982  1.0000
  I   I38       1.0  0.92963  0.33680  0.53870  1.0000
  I   I39       1.0  0.21317  0.33591  0.73375  1.0000
  I   I40       1.0  0.87847  0.26785  0.52324  1.0000
  I   I41       1.0  0.02162  0.47357  0.98480  1.0000
  I   I42       1.0  0.65736  0.63738  0.59048  1.0000
  I   I43       1.0  0.40823  0.19648  0.43986  1.0000
  I   I44       1.0  0.91629  0.29385  0.52737  1.0000
  I   I45       1.0  0.80255  0.61957  0.32984  1.0000
  I   I46       1.0  0.43637  0.18343  0.77409  1.0000
  I   I47       1.0  0.87530  0.05435  0.96638  1.0000
  I   I48       1.0  0.98641  0.92901  0.46975  1.0000
  I   I49       1.0  0.08397  0.88420  0.26336  1.0000
  I   I50       1.0  0.52899  0.77403  0.76644  1.0000
  I   I51       1.0  0.54772  0.71839  0.75086  1.0000
  I   I52       1.0  0.72370  0.74806  0.66020  1.0000
  I   I53       1.0  0.41416  0.65236  0.72000  1.0000
  I   I54       1.0  0.41371  0.87467  0.81612  1.0000
  I   I55       1.0  0.75874  0.81910  0.08379  1.0000
  I   I56       1.0  0.10370  0.00746  0.60528  1.0000
  I   I57       1.0  0.42979  0.14835  0.82002  1.0000
  I   I58       1.0  0.58811  0.65638  0.44604  1.0000
  I   I59       1.0  0.19119  0.85864  0.82145  1.0000
  I   I60       1.0  0.89816  0.16223  0.98663  1.0000
  I   I61       1.0  0.97333  0.60041  0.86697  1.0000
  I   I62       1.0  0.97721  0.53448  0.69883  1.0000
  I   I63       1.0  0.02141  0.71571  0.79140  1.0000
  I   I64       1.0  0.12156  0.92380  0.64431  1.0000
  I   I65       1.0  0.29618  0.34565  0.75778  1.0000
  I   I66       1.0  0.40891  0.96287  0.08736  1.0000
  I   I67       1.0  0.54524  0.29951  0.90187  1.0000
  I   I68       1.0  0.06298  0.75084  0.84199  1.0000
  I   I69       1.0  0.08395  0.74130  0.47140  1.0000
  I   I70       1.0  0.21629  0.04664  0.50669  1.0000
  I   I71       1.0  0.21071  0.52177  0.46884  1.0000
  I   I72       1.0  0.88816  0.06608  0.86915  1.0000
  I   I73       1.0  0.70460  0.78041  0.93134  1.0000
  I   I74       1.0  0.13336  0.75709  0.54577  1.0000
  I   I75       1.0  0.13029  0.75371  0.44351  1.0000
  I   I76       1.0  0.93491  0.23967  0.16053  1.0000
  I   I77       1.0  0.83864  0.27729  0.19877  1.0000
  I   I78       1.0  0.77548  0.23046  0.18435  1.0000
  I   I79       1.0  0.55202  0.29663  0.01462  1.0000
  I   I80       1.0  0.92967  0.79501  0.48739  1.0000
  I   I81       1.0  0.49191  0.72815  0.11318  1.0000
  I   I82       1.0  0.68453  0.54570  0.63877  1.0000
  I   I83       1.0  0.92337  0.51932  0.19998  1.0000
  I   I84       1.0  0.31912  0.21736  0.60554  1.0000
  I   I85       1.0  0.30542  0.27832  0.70904  1.0000
  I   I86       1.0  0.44116  0.98547  0.07201  1.0000
  I   I87       1.0  0.93983  0.36190  0.61910  1.0000
  I   I88       1.0  0.63537  0.60600  0.41250  1.0000
  I   I89       1.0  0.71400  0.47786  0.51095  1.0000
  I   I90       1.0  0.96428  0.52753  0.00758  1.0000
  I   I91       1.0  0.73629  0.16072  0.62436  1.0000
  I   I92       1.0  0.33686  0.55083  0.22092  1.0000
  I   I93       1.0  0.86695  0.29723  0.60809  1.0000
  I   I94       1.0  0.92746  0.94656  0.49343  1.0000
  I   I95       1.0  0.84539  0.39392  0.96966  1.0000
  I   I96       1.0  0.54929  0.48835  0.55734  1.0000
  I   I97       1.0  0.03331  0.22753  0.54027  1.0000
  I   I98       1.0  0.90711  0.83174  0.58106  1.0000
  I   I99       1.0  0.56169  0.79796  0.62568  1.0000
  I   I100      1.0  0.22515  0.16474  0.78726  1.0000
  I   I101      1.0  0.13804  0.78469  0.64847  1.0000
  I   I102      1.0  0.42150  0.03968  0.53023  1.0000
  I   I103      1.0  0.78807  0.82199  0.16937  1.0000
  I   I104      1.0  0.57733  0.68921  0.88264  1.0000
  I   I105      1.0  0.09538  0.46962  0.64915  1.0000
  I   I106      1.0  0.68490  0.87422  0.21149  1.0000
  I   I107      1.0  0.59820  0.59908  0.48724  1.0000
  I   I108      1.0  0.73490  0.87348  0.13966  1.0000
  I   I109      1.0  0.84238  0.31469  0.24049  1.0000
  I   I110      1.0  0.01217  0.54150  0.79693  1.0000
  I   I111      1.0  0.99114  0.76109  0.72578  1.0000
  I   I112      1.0  0.75111  0.14892  0.98116  1.0000
  I   I113      1.0  0.25740  0.41424  0.82303  1.0000
  I   I114      1.0  0.34967  0.48144  0.40815  1.0000
  I   I115      1.0  0.28427  0.29181  0.25156  1.0000
  I   I116      1.0  0.28429  0.33881  0.27505  1.0000
  I   I117      1.0  0.75406  0.13207  0.34255  1.0000
  I   I118      1.0  0.48055  0.45250  0.67471  1.0000
  I   I119      1.0  0.34007  0.29973  0.24812  1.0000
  I   I120      1.0  0.86872  0.01334  0.92835  1.0000
  I   I121      1.0  0.63816  0.33795  0.30083  1.0000
  I   I122      1.0  0.75707  0.42015  0.20016  1.0000
  I   I123      1.0  0.89765  0.72383  0.29570  1.0000
  I   I124      1.0  0.16858  0.21345  0.26968  1.0000
  I   I125      1.0  0.65218  0.04562  0.45232  1.0000
  I   I126      1.0  0.94156  0.08352  0.70517  1.0000
  I   I127      1.0  0.56597  0.29375  0.11944  1.0000
  I   I128      1.0  0.18996  0.18441  0.88081  1.0000
  I   I129      1.0  0.21215  0.48377  0.53630  1.0000
  I   I130      1.0  0.28903  0.23335  0.49529  1.0000
  I   I131      1.0  0.64788  0.60119  0.64834  1.0000
  I   I132      1.0  0.63072  0.83090  0.08501  1.0000
  I   I133      1.0  0.88925  0.33822  0.61202  1.0000
  I   I134      1.0  0.40925  0.33950  0.86766  1.0000
  I   I135      1.0  0.37532  0.00384  0.16774  1.0000
  I   I136      1.0  0.90676  0.70950  0.42749  1.0000
  I   I137      1.0  0.43687  0.49414  0.26896  1.0000
  I   I138      1.0  0.98997  0.59581  0.51381  1.0000
  I   I139      1.0  0.75596  0.21167  0.59639  1.0000
  I   I140      1.0  0.31420  0.60762  0.16609  1.0000
  I   I141      1.0  0.37558  0.57270  0.70356  1.0000
  I   I142      1.0  0.94059  0.96211  0.59847  1.0000
  I   I143      1.0  0.09892  0.17131  0.51433  1.0000
  I   I144      1.0  0.47796  0.46802  0.57327  1.0000
  I   I145      1.0  0.92464  0.76803  0.57139  1.0000
  I   I146      1.0  0.49832  0.74499  0.68404  1.0000
  I   I147      1.0  0.07516  0.23429  0.50015  1.0000
  I   I148      1.0  0.41552  0.45155  0.28674  1.0000
  I   I149      1.0  0.41289  0.00946  0.60945  1.0000
  I   I150      1.0  0.56949  0.55056  0.16781  1.0000
  I   I151      1.0  0.51209  0.68782  0.91959  1.0000
  I   I152      1.0  0.14219  0.04593  0.55621  1.0000
  I   I153      1.0  0.04501  0.52106  0.68297  1.0000
  I   I154      1.0  0.11796  0.78470  0.26599  1.0000
  I   I155      1.0  0.04949  0.93971  0.94946  1.0000
  I   I156      1.0  0.84335  0.17235  0.94988  1.0000
  I   I157      1.0  0.90294  0.21680  0.19647  1.0000
  I   I158      1.0  0.98872  0.78351  0.82468  1.0000
  I   I159      1.0  0.58765  0.12976  0.36800  1.0000
  I   I160      1.0  0.69940  0.19247  0.93057  1.0000
  I   I161      1.0  0.31431  0.48244  0.48872  1.0000
  I   I162      1.0  0.71563  0.14844  0.80508  1.0000
  I   I163      1.0  0.57478  0.32026  0.83516  1.0000
  I   I164      1.0  0.79652  0.06991  0.29857  1.0000
  I   I165      1.0  0.15653  0.99128  0.59260  1.0000
  I   I166      1.0  0.51307  0.41620  0.61763  1.0000
  I   I167      1.0  0.22630  0.55736  0.54446  1.0000
  I   I168      1.0  0.54649  0.27739  0.41850  1.0000
  I   I169      1.0  0.66555  0.45046  0.06118  1.0000
  I   I170      1.0  0.72469  0.41761  0.08139  1.0000
  I   I171      1.0  0.69756  0.83108  0.92233  1.0000
  I   I172      1.0  0.62911  0.00404  0.45134  1.0000
  I   I173      1.0  0.95054  0.06214  0.62340  1.0000
  I   I174      1.0  0.15691  0.17858  0.22663  1.0000
  I   I175      1.0  0.84679  0.18313  0.19494  1.0000
  I   I176      1.0  0.44290  0.74062  0.19553  1.0000
  I   I177      1.0  0.42552  0.88099  0.41727  1.0000
  I   I178      1.0  0.71414  0.55582  0.61700  1.0000
  I   I179      1.0  0.85978  0.55514  0.19295  1.0000
  I   I180      1.0  0.26940  0.22400  0.62541  1.0000
  I   I181      1.0  0.24686  0.29252  0.75603  1.0000
  I   I182      1.0  0.84632  0.78921  0.23672  1.0000
  I   I183      1.0  0.66475  0.72592  0.33439  1.0000
  I   I184      1.0  0.09810  0.83090  0.70195  1.0000
  I   I185      1.0  0.97740  0.64632  0.46768  1.0000
  I   I186      1.0  0.90311  0.66297  0.50315  1.0000
  I   I187      1.0  0.29908  0.56639  0.12535  1.0000
  I   I188      1.0  0.85844  0.32477  0.49471  1.0000
  I   I189      1.0  0.70944  0.71696  0.43310  1.0000
  I   I190      1.0  0.78866  0.44430  0.97466  1.0000
  I   I191      1.0  0.19237  0.28204  0.94521  1.0000
  I   I192      1.0  0.07848  0.21633  0.60618  1.0000
  I   I193      1.0  0.97971  0.97123  0.76834  1.0000
  I   I194      1.0  0.02781  0.52041  0.98269  1.0000
  I   I195      1.0  0.05898  0.18439  0.58074  1.0000
  I   I196      1.0  0.16761  0.17534  0.77052  1.0000
  I   I197      1.0  0.45525  0.19281  0.35641  1.0000
  I   I198      1.0  0.59245  0.54402  0.05784  1.0000
  I   I199      1.0  0.46152  0.69908  0.12356  1.0000
  I   I200      1.0  0.80602  0.93667  0.78380  1.0000
  I   I201      1.0  0.09829  0.46475  0.75920  1.0000
  I   I202      1.0  0.13115  0.86859  0.82466  1.0000
  I   I203      1.0  0.13124  0.70907  0.50568  1.0000
  I   I204      1.0  0.73963  0.86387  0.25233  1.0000
  I   I205      1.0  0.99038  0.55625  0.91844  1.0000
  I   I206      1.0  0.16248  0.22600  0.80491  1.0000
  I   I207      1.0  0.94541  0.22085  0.25081  1.0000
  I   I208      1.0  0.17876  0.87428  0.72586  1.0000
  I   I209      1.0  0.31419  0.54457  0.46422  1.0000
  I   I210      1.0  0.42380  0.90269  0.33594  1.0000
  I   I211      1.0  0.25314  0.03656  0.57585  1.0000
  I   I212      1.0  0.06546  0.70725  0.87922  1.0000
  I   I213      1.0  0.02287  0.78035  0.49185  1.0000
  I   I214      1.0  0.59103  0.45347  0.62170  1.0000
  I   I215      1.0  0.21739  0.52645  0.61206  1.0000
  I   I216      1.0  0.31572  0.56545  0.68944  1.0000
  I   I217      1.0  0.76736  0.37387  0.13733  1.0000
  I   I218      1.0  0.93756  0.71398  0.19952  1.0000
  I   I219      1.0  0.65696  0.36624  0.38282  1.0000
  I   I220      1.0  0.90472  0.28384  0.23685  1.0000
  I   I221      1.0  0.02756  0.97076  0.69972  1.0000
  I   I222      1.0  0.59493  0.05747  0.43035  1.0000
  I   I223      1.0  0.80261  0.22937  0.27913  1.0000
  I   I224      1.0  0.49110  0.69868  0.22266  1.0000
  I   I225      1.0  0.55553  0.34668  0.04522  1.0000
  I   I226      1.0  0.70708  0.55376  0.72128  1.0000
  I   I227      1.0  0.63863  0.87579  0.12641  1.0000
  I   I228      1.0  0.28894  0.18689  0.55190  1.0000
  I   I229      1.0  0.35901  0.50109  0.49692  1.0000
  I   I230      1.0  0.41379  0.38914  0.89000  1.0000
  I   I231      1.0  0.88783  0.38983  0.57789  1.0000
  I   I232      1.0  0.21190  0.22467  0.82065  1.0000
  I   I233      1.0  0.93505  0.68555  0.01553  1.0000
  I   I234      1.0  0.13678  0.32386  0.95012  1.0000
  I   I235      1.0  0.12328  0.82671  0.31900  1.0000
  I   I236      1.0  0.34567  0.54707  0.77140  1.0000
  I   I237      1.0  0.71103  0.22232  0.66001  1.0000
  I   I238      1.0  0.47729  0.12983  0.87687  1.0000
  I   I239      1.0  0.51151  0.48229  0.63492  1.0000
  I   I240      1.0  0.95133  0.94655  0.40027  1.0000
  I   I241      1.0  0.96930  0.78714  0.55494  1.0000
  I   I242      1.0  0.55333  0.74727  0.65574  1.0000
  I   I243      1.0  0.83546  0.45574  0.99576  1.0000
  I   I244      1.0  0.13082  0.77394  0.74648  1.0000
  I   I245      1.0  0.39412  0.69152  0.63771  1.0000
  I   I246      1.0  0.62767  0.54031  0.15120  1.0000
  I   I247      1.0  0.81788  0.76644  0.09106  1.0000
  I   I248      1.0  0.13078  0.98923  0.69719  1.0000
  I   I249      1.0  0.10143  0.50725  0.70275  1.0000
  I   I250      1.0  0.17438  0.92229  0.67741  1.0000
  I   I251      1.0  0.03446  0.94152  0.05357  1.0000
  I   I252      1.0  0.86252  0.22037  0.96410  1.0000
  I   I253      1.0  0.96907  0.53788  0.83896  1.0000
  I   I254      1.0  0.26177  0.20306  0.73662  1.0000
  I   I255      1.0  0.61840  0.10955  0.27198  1.0000
  I   I256      1.0  0.29900  0.36756  0.85349  1.0000
  I   I257      1.0  0.25332  0.28446  0.65627  1.0000
  I   I258      1.0  0.68836  0.20764  0.82713  1.0000
  I   I259      1.0  0.29769  0.32959  0.17369  1.0000
  I   I260      1.0  0.78443  0.08921  0.40487  1.0000
  I   I261      1.0  0.11762  0.05408  0.64626  1.0000
  I   I262      1.0  0.55711  0.43181  0.65760  1.0000
  I   I263      1.0  0.19701  0.65079  0.34662  1.0000
  I   I264      1.0  0.28948  0.26151  0.56632  1.0000
  I   I265      1.0  0.72413  0.45427  0.14107  1.0000
  I   I266      1.0  0.08242  0.78736  0.49750  1.0000
  I   I267      1.0  0.60711  0.39936  0.33414  1.0000
  I   I268      1.0  0.40533  0.98533  0.97391  1.0000
  I   I269      1.0  0.93975  0.04209  0.75290  1.0000
  I   I270      1.0  0.39543  0.03280  0.08433  1.0000
  I   I271      1.0  0.81237  0.17883  0.25066  1.0000
  I   I272      1.0  0.15576  0.50072  0.51348  1.0000
  I   I273      1.0  0.51162  0.33565  0.09157  1.0000
  I   I274      1.0  0.86913  0.72819  0.00150  1.0000
  I   I275      1.0  0.68635  0.81381  0.13579  1.0000
  I   I276      1.0  0.29618  0.29529  0.50549  1.0000
  I   I277      1.0  0.70206  0.59958  0.67033  1.0000
  I   I278      1.0  0.38982  0.40110  0.79027  1.0000
  I   I279      1.0  0.80010  0.58318  0.41520  1.0000
  I   I280      1.0  0.45330  0.44809  0.34461  1.0000
  I   I281      1.0  0.90257  0.66743  0.04984  1.0000
  I   I282      1.0  0.86690  0.71193  0.50769  1.0000
  I   I283      1.0  0.09441  0.81615  0.19817  1.0000
  I   I284      1.0  0.59831  0.26172  0.46171  1.0000
  I   I285      1.0  0.65107  0.75732  0.41654  1.0000
  I   I286      1.0  0.47590  0.14227  0.76420  1.0000
  I   I287      1.0  0.91928  0.00496  0.91393  1.0000
  I   I288      1.0  0.96929  0.97004  0.51891  1.0000
  I   I289      1.0  0.13663  0.83504  0.23938  1.0000
  I   I290      1.0  0.17043  0.30569  0.04747  1.0000
  I   I291      1.0  0.50863  0.78915  0.68281  1.0000
  I   I292      1.0  0.40594  0.49905  0.37619  1.0000
  I   I293      1.0  0.36704  0.70856  0.73519  1.0000
  I   I294      1.0  0.37819  0.85606  0.87733  1.0000
  I   I295      1.0  0.85580  0.82948  0.19225  1.0000
  I   I296      1.0  0.81755  0.99304  0.75830  1.0000
  I   I297      1.0  0.10357  0.41139  0.68931  1.0000
  I   I298      1.0  0.39408  0.22282  0.34351  1.0000
  I   I299      1.0  0.17082  0.87166  0.62074  1.0000
  I   I300      1.0  0.36664  0.53177  0.65363  1.0000
  I   I301      1.0  0.64076  0.12292  0.36763  1.0000
  I   I302      1.0  0.95732  0.58156  0.78952  1.0000
  I   I303      1.0  0.63517  0.60753  0.53427  1.0000
  I   I304      1.0  0.75022  0.16404  0.84808  1.0000
  I   I305      1.0  0.15044  0.90740  0.82807  1.0000
  I   I306      1.0  0.80746  0.85426  0.22923  1.0000
  I   I307      1.0  0.56722  0.27886  0.79040  1.0000
  I   I308      1.0  0.02157  0.78801  0.78899  1.0000
  I   I309      1.0  0.09101  0.05803  0.56537  1.0000
  I   I310      1.0  0.07135  0.84686  0.29853  1.0000
  I   I311      1.0  0.25181  0.59955  0.34917  1.0000
  I   I312      1.0  0.89864  0.99668  0.80705  1.0000
  I   I313      1.0  0.66455  0.37131  0.27788  1.0000
  I   I314      1.0  0.67775  0.45574  0.15842  1.0000
  I   I315      1.0  0.96045  0.69012  0.29586  1.0000
  I   I316      1.0  0.63378  0.04374  0.34713  1.0000
  I   I317      1.0  0.41889  0.98863  0.17418  1.0000
  I   I318      1.0  0.97043  0.00363  0.67479  1.0000
  I   I319      1.0  0.48018  0.84517  0.38055  1.0000
  I   I320      1.0  0.19723  0.20865  0.73994  1.0000
  I   I321      1.0  0.55800  0.68391  0.98176  1.0000
  I   I322      1.0  0.68735  0.46026  0.58253  1.0000
  I   I323      1.0  0.89034  0.54274  0.28001  1.0000
  I   I324      1.0  0.24098  0.27928  0.51529  1.0000
  I   I325      1.0  0.25482  0.33985  0.68838  1.0000
  I   I326      1.0  0.83790  0.79851  0.13179  1.0000
  I   I327      1.0  0.82977  0.55992  0.31906  1.0000
  I   I328      1.0  0.64471  0.63646  0.46092  1.0000
  I   I329      1.0  0.93776  0.60947  0.45532  1.0000
  I   I330      1.0  0.19294  0.33373  0.97746  1.0000
  I   I331      1.0  0.67609  0.68775  0.41261  1.0000
  I   I332      1.0  0.43665  0.15738  0.35462  1.0000
  I   I333      1.0  0.73962  0.46623  0.59558  1.0000
  I   I334      1.0  0.98930  0.91717  0.56371  1.0000
  I   I335      1.0  0.83784  0.43573  0.89097  1.0000
  I   I336      1.0  0.53765  0.44687  0.55984  1.0000
  I   I337      1.0  0.10526  0.87092  0.16736  1.0000
  I   I338      1.0  0.99657  0.50523  0.90408  1.0000
  I   I339      1.0  0.50892  0.82519  0.61224  1.0000
  I   I340      1.0  0.73750  0.77876  0.60069  1.0000
  I   I341      1.0  0.46314  0.00223  0.60152  1.0000
  I   I342      1.0  0.34016  0.91165  0.86702  1.0000
  I   I343      1.0  0.57325  0.64102  0.91357  1.0000
  I   I344      1.0  0.81953  0.96032  0.86999  1.0000
  I   I345      1.0  0.05285  0.45737  0.67850  1.0000
  I   I346      1.0  0.23447  0.99638  0.55459  1.0000
  I   I347      1.0  0.13039  0.90538  0.74138  1.0000
  I   I348      1.0  0.85919  0.19208  0.05617  1.0000
  I   I349      1.0  0.61577  0.16182  0.28656  1.0000
  I   I350      1.0  0.92355  0.55916  0.77317  1.0000
  I   I351      1.0  0.26341  0.17377  0.82707  1.0000
  I   I352      1.0  0.74343  0.20118  0.94900  1.0000
  I   I353      1.0  0.24696  0.37194  0.81671  1.0000
  I   I354      1.0  0.80610  0.82129  0.05100  1.0000
  I   I355      1.0  0.52426  0.33470  0.79361  1.0000
  I   I356      1.0  0.81215  0.11219  0.34543  1.0000
  I   I357      1.0  0.07818  0.73434  0.56134  1.0000
  I   I358      1.0  0.52534  0.30433  0.52400  1.0000
  I   I359      1.0  0.20129  0.59583  0.38439  1.0000
  I   I360      1.0  0.91164  0.95633  0.88620  1.0000
  I   I361      1.0  0.74603  0.79758  0.99857  1.0000
  I   I362      1.0  0.68741  0.49101  0.06781  1.0000
  I   I363      1.0  0.04364  0.79301  0.57599  1.0000
  I   I364      1.0  0.19335  0.20198  0.17090  1.0000
  I   I365      1.0  0.88952  0.24746  0.27621  1.0000
  I   I366      1.0  0.01395  0.99414  0.80072  1.0000
  I   I367      1.0  0.46916  0.89425  0.43935  1.0000
  I   I368      1.0  0.77568  0.74187  0.68377  1.0000
  I   I369      1.0  0.17265  0.54331  0.53524  1.0000
  I   I370      1.0  0.89110  0.72208  0.10177  1.0000
  I   I371      1.0  0.89484  0.49228  0.27071  1.0000
  I   I372      1.0  0.56643  0.24349  0.51885  1.0000
  I   I373      1.0  0.20113  0.32187  0.62722  1.0000
  I   I374      1.0  0.44506  0.35485  0.82222  1.0000
  I   I375      1.0  0.75891  0.59967  0.33629  1.0000
  I   I376      1.0  0.21764  0.63102  0.44457  1.0000
  I   I377      1.0  0.98905  0.59051  0.40941  1.0000
  I   I378      1.0  0.90509  0.71309  0.55406  1.0000
  I   I379      1.0  0.70167  0.20487  0.56603  1.0000
  I   I380      1.0  0.27242  0.59227  0.21969  1.0000
  I   I381      1.0  0.73023  0.82316  0.21502  1.0000
  I   I382      1.0  0.92245  0.99945  0.44178  1.0000
  I   I383      1.0  0.45434  0.18752  0.85615  1.0000
  I   I384      1.0  0.84001  0.06656  0.88005  1.0000
