data_image0
_chemical_formula_structural       Ti96I384
_chemical_formula_sum              "Ti96 I384"
_cell_length_a       52.6559
_cell_length_b       52.8482
_cell_length_c       25.4835
_cell_angle_alpha    88.7757
_cell_angle_beta     88.7757
_cell_angle_gamma    62.1586

_space_group_name_H-M_alt    "P 1"
_space_group_IT_number       1

loop_
  _space_group_symop_operation_xyz
  'x, y, z'

loop_
  _atom_site_type_symbol
  _atom_site_label
  _atom_site_symmetry_multiplicity
  _atom_site_fract_x
  _atom_site_fract_y
  _atom_site_fract_z
  _atom_site_occupancy
  Ti  Ti1       1.0  0.59830  0.76478  0.31326  1.0000
  Ti  Ti2       1.0  0.06897  0.99012  0.23991  1.0000
  Ti  Ti3       1.0  0.44498  0.87876  0.25394  1.0000
  Ti  Ti4       1.0  0.27477  0.02291  0.50140  1.0000
  Ti  Ti5       1.0  0.16848  0.30325  0.46704  1.0000
  Ti  Ti6       1.0  0.15324  0.19291  0.91687  1.0000
  Ti  Ti7       1.0  0.00101  0.81107  0.14239  1.0000
  Ti  Ti8       1.0  0.98647  0.06077  0.54502  1.0000
  Ti  Ti9       1.0  0.88535  0.81844  0.35646  1.0000
  Ti  Ti10      1.0  0.34175  0.75955  0.98136  1.0000
  Ti  Ti11      1.0  0.90153  0.77826  0.80740  1.0000
  Ti  Ti12      1.0  0.05615  0.70225  0.88171  1.0000
  Ti  Ti13      1.0  0.33518  0.19907  0.34349  1.0000
  Ti  Ti14      1.0  0.37475  0.11400  0.60064  1.0000
  Ti  Ti15      1.0  0.31489  0.15304  0.06329  1.0000
  Ti  Ti16      1.0  0.22987  0.61311  0.09502  1.0000
  Ti  Ti17      1.0  0.19947  0.63502  0.41377  1.0000
  Ti  Ti18      1.0  0.28191  0.39581  0.47127  1.0000
  Ti  Ti19      1.0  0.41707  0.70791  0.57115  1.0000
  Ti  Ti20      1.0  0.65517  0.78945  0.76880  1.0000
  Ti  Ti21      1.0  0.32952  0.53301  0.83144  1.0000
  Ti  Ti22      1.0  0.40172  0.93392  0.88264  1.0000
  Ti  Ti23      1.0  0.72813  0.87127  0.07523  1.0000
  Ti  Ti24      1.0  0.45543  0.85346  0.62111  1.0000
  Ti  Ti25      1.0  0.31571  0.28827  0.80728  1.0000
  Ti  Ti26      1.0  0.33976  0.32723  0.97270  1.0000
  Ti  Ti27      1.0  0.48666  0.47271  0.53725  1.0000
  Ti  Ti28      1.0  0.41234  0.63534  0.27085  1.0000
  Ti  Ti29      1.0  0.68912  0.39048  0.95858  1.0000
  Ti  Ti30      1.0  0.67724  0.55106  0.89525  1.0000
  Ti  Ti31      1.0  0.94554  0.47681  0.04322  1.0000
  Ti  Ti32      1.0  0.78421  0.40428  0.62856  1.0000
  Ti  Ti33      1.0  0.88163  0.52938  0.77326  1.0000
  Ti  Ti34      1.0  0.82708  0.00454  0.86203  1.0000
  Ti  Ti35      1.0  0.73803  0.65887  0.07980  1.0000
  Ti  Ti36      1.0  0.82372  0.59555  0.51602  1.0000
  Ti  Ti37      1.0  0.66383  0.22593  0.25428  1.0000
  Ti  Ti38      1.0  0.61973  0.36658  0.25214  1.0000
  Ti  Ti39      1.0  0.47198  0.34505  0.91688  1.0000
  Ti  Ti40      1.0  0.92304  0.19550  0.97879  1.0000
  Ti  Ti41      1.0  0.75314  0.26168  0.61073  1.0000
  Ti  Ti42      1.0  0.28214  0.81223  0.28255  1.0000
  Ti  Ti43      1.0  0.78321  0.41277  0.25594  1.0000
  Ti  Ti44      1.0  0.03398  0.47504  0.53899  1.0000
  Ti  Ti45      1.0  0.11915  0.45134  0.80414  1.0000
  Ti  Ti46      1.0  0.69927  0.00333  0.55335  1.0000
  Ti  Ti47      1.0  0.58545  0.07718  0.33770  1.0000
  Ti  Ti48      1.0  0.59218  0.14870  0.77342  1.0000
  Ti  Ti49      1.0  0.52847  0.80143  0.26809  1.0000
  Ti  Ti50      1.0  0.06572  0.91909  0.20580  1.0000
  Ti  Ti51      1.0  0.06844  0.06162  0.22806  1.0000
  Ti  Ti52      1.0  0.30036  0.95318  0.45198  1.0000
  Ti  Ti53      1.0  0.13381  0.23756  0.44135  1.0000
  Ti  Ti54      1.0  0.13898  0.23446  0.82930  1.0000
  Ti  Ti55      1.0  0.92629  0.83534  0.20768  1.0000
  Ti  Ti56      1.0  0.92136  0.06209  0.51055  1.0000
  Ti  Ti57      1.0  0.79986  0.87953  0.40904  1.0000
  Ti  Ti58      1.0  0.29222  0.80162  0.81849  1.0000
  Ti  Ti59      1.0  0.31210  0.68985  0.97240  1.0000
  Ti  Ti60      1.0  0.98151  0.71131  0.84867  1.0000
  Ti  Ti61      1.0  0.29613  0.17170  0.22100  1.0000
  Ti  Ti62      1.0  0.37943  0.24062  0.33021  1.0000
  Ti  Ti63      1.0  0.30016  0.15144  0.66570  1.0000
  Ti  Ti64      1.0  0.22584  0.44206  0.37241  1.0000
  Ti  Ti65      1.0  0.21508  0.62369  0.23900  1.0000
  Ti  Ti66      1.0  0.11197  0.60681  0.44289  1.0000
  Ti  Ti67      1.0  0.45464  0.66938  0.72405  1.0000
  Ti  Ti68      1.0  0.71031  0.77948  0.80476  1.0000
  Ti  Ti69      1.0  0.34494  0.52739  0.66096  1.0000
  Ti  Ti70      1.0  0.44024  0.90980  0.73387  1.0000
  Ti  Ti71      1.0  0.78196  0.79907  0.16058  1.0000
  Ti  Ti72      1.0  0.66656  0.92138  0.04122  1.0000
  Ti  Ti73      1.0  0.54796  0.47398  0.59651  1.0000
  Ti  Ti74      1.0  0.27183  0.36447  0.85173  1.0000
  Ti  Ti75      1.0  0.30412  0.40254  0.07618  1.0000
  Ti  Ti76      1.0  0.63526  0.61376  0.79516  1.0000
  Ti  Ti77      1.0  0.48237  0.56068  0.24957  1.0000
  Ti  Ti78      1.0  0.67413  0.46715  0.87781  1.0000
  Ti  Ti79      1.0  0.94747  0.45459  0.86821  1.0000
  Ti  Ti80      1.0  0.99258  0.45168  0.17857  1.0000
  Ti  Ti81      1.0  0.83245  0.39563  0.69481  1.0000
  Ti  Ti82      1.0  0.81875  0.04873  0.01691  1.0000
  Ti  Ti83      1.0  0.76625  0.58011  0.18341  1.0000
  Ti  Ti84      1.0  0.74441  0.66467  0.52407  1.0000
  Ti  Ti85      1.0  0.65307  0.16025  0.23365  1.0000
  Ti  Ti86      1.0  0.67066  0.29896  0.16337  1.0000
  Ti  Ti87      1.0  0.45347  0.41021  0.93393  1.0000
  Ti  Ti88      1.0  0.96470  0.13198  0.90369  1.0000
  Ti  Ti89      1.0  0.73716  0.22325  0.75204  1.0000
  Ti  Ti90      1.0  0.24086  0.75559  0.26312  1.0000
  Ti  Ti91      1.0  0.17094  0.47417  0.69537  1.0000
  Ti  Ti92      1.0  0.82987  0.35306  0.19767  1.0000
  Ti  Ti93      1.0  0.04569  0.50328  0.67479  1.0000
  Ti  Ti94      1.0  0.57595  0.12482  0.92575  1.0000
  Ti  Ti95      1.0  0.65366  0.94642  0.54542  1.0000
  Ti  Ti96      1.0  0.53152  0.09234  0.21021  1.0000
  I   I1        1.0  0.03446  0.89791  0.25665  1.0000
  I   I2        1.0  0.06220  0.02711  0.15745  1.0000
  I   I3        1.0  0.49522  0.79540  0.20158  1.0000
  I   I4        1.0  0.18640  0.20108  0.42396  1.0000
  I   I5        1.0  0.18949  0.22812  0.90162  1.0000
  I   I6        1.0  0.17534  0.16980  0.82151  1.0000
  I   I7        1.0  0.92531  0.10704  0.56860  1.0000
  I   I8        1.0  0.02207  0.08189  0.52690  1.0000
  I   I9        1.0  0.90278  0.85992  0.32042  1.0000
  I   I10       1.0  0.33291  0.72342  0.03974  1.0000
  I   I11       1.0  0.92806  0.71722  0.87492  1.0000
  I   I12       1.0  0.33419  0.78742  0.75306  1.0000
  I   I13       1.0  0.38408  0.19509  0.26953  1.0000
  I   I14       1.0  0.35095  0.13670  0.70754  1.0000
  I   I15       1.0  0.26481  0.19679  0.13399  1.0000
  I   I16       1.0  0.17780  0.64866  0.16519  1.0000
  I   I17       1.0  0.07078  0.65751  0.46330  1.0000
  I   I18       1.0  0.24080  0.38790  0.40317  1.0000
  I   I19       1.0  0.70376  0.73929  0.74920  1.0000
  I   I20       1.0  0.37443  0.47280  0.64628  1.0000
  I   I21       1.0  0.27383  0.57197  0.84872  1.0000
  I   I22       1.0  0.80176  0.77096  0.24935  1.0000
  I   I23       1.0  0.72711  0.83693  0.17499  1.0000
  I   I24       1.0  0.49115  0.85723  0.70872  1.0000
  I   I25       1.0  0.22026  0.40418  0.86924  1.0000
  I   I26       1.0  0.34363  0.38240  0.97731  1.0000
  I   I27       1.0  0.46591  0.53155  0.52275  1.0000
  I   I28       1.0  0.45191  0.61955  0.19613  1.0000
  I   I29       1.0  0.62182  0.47337  0.90681  1.0000
  I   I30       1.0  0.62405  0.56357  0.80462  1.0000
  I   I31       1.0  0.00132  0.42992  0.07249  1.0000
  I   I32       1.0  0.84009  0.40416  0.58904  1.0000
  I   I33       1.0  0.94205  0.49118  0.78044  1.0000
  I   I34       1.0  0.77047  0.67317  0.01989  1.0000
  I   I35       1.0  0.71082  0.64280  0.54439  1.0000
  I   I36       1.0  0.85195  0.07573  0.02034  1.0000
  I   I37       1.0  0.62034  0.28646  0.22223  1.0000
  I   I38       1.0  0.42283  0.45141  0.99735  1.0000
  I   I39       1.0  0.61329  0.14842  0.22070  1.0000
  I   I40       1.0  0.78212  0.17936  0.72441  1.0000
  I   I41       1.0  0.20958  0.75197  0.19318  1.0000
  I   I42       1.0  0.92260  0.14166  0.98653  1.0000
  I   I43       1.0  0.81276  0.32326  0.14345  1.0000
  I   I44       1.0  0.99814  0.48941  0.63098  1.0000
  I   I45       1.0  0.09379  0.48238  0.88502  1.0000
  I   I46       1.0  0.65705  0.98858  0.60289  1.0000
  I   I47       1.0  0.54266  0.06117  0.31220  1.0000
  I   I48       1.0  0.61894  0.10663  0.85458  1.0000
  I   I49       1.0  0.55288  0.83101  0.33040  1.0000
  I   I50       1.0  0.09839  0.94641  0.16423  1.0000
  I   I51       1.0  0.06953  0.08866  0.31450  1.0000
  I   I52       1.0  0.25440  0.02701  0.59660  1.0000
  I   I53       1.0  0.15655  0.26447  0.52383  1.0000
  I   I54       1.0  0.17610  0.22742  0.75525  1.0000
  I   I55       1.0  0.95441  0.80677  0.12338  1.0000
  I   I56       1.0  0.92644  0.02483  0.44361  1.0000
  I   I57       1.0  0.83062  0.86162  0.31801  1.0000
  I   I58       1.0  0.39794  0.72861  0.99816  1.0000
  I   I59       1.0  0.27792  0.69235  0.04390  1.0000
  I   I60       1.0  0.02256  0.71330  0.78627  1.0000
  I   I61       1.0  0.34084  0.14469  0.29345  1.0000
  I   I62       1.0  0.43112  0.22945  0.29400  1.0000
  I   I63       1.0  0.39206  0.06009  0.62648  1.0000
  I   I64       1.0  0.27987  0.58588  0.05204  1.0000
  I   I65       1.0  0.24993  0.61337  0.34244  1.0000
  I   I66       1.0  0.10091  0.59821  0.35166  1.0000
  I   I67       1.0  0.50251  0.62654  0.75410  1.0000
  I   I68       1.0  0.62259  0.76473  0.75644  1.0000
  I   I69       1.0  0.34141  0.56851  0.74058  1.0000
  I   I70       1.0  0.38936  0.95026  0.77667  1.0000
  I   I71       1.0  0.76863  0.81699  0.02847  1.0000
  I   I72       1.0  0.63174  0.97600  0.06712  1.0000
  I   I73       1.0  0.43844  0.48327  0.58910  1.0000
  I   I74       1.0  0.33379  0.32104  0.86829  1.0000
  I   I75       1.0  0.27344  0.40712  0.16634  1.0000
  I   I76       1.0  0.39430  0.64152  0.36993  1.0000
  I   I77       1.0  0.52791  0.56873  0.26228  1.0000
  I   I78       1.0  0.71104  0.48977  0.85141  1.0000
  I   I79       1.0  0.93205  0.44501  0.97892  1.0000
  I   I80       1.0  0.95873  0.49275  0.23592  1.0000
  I   I81       1.0  0.80168  0.38930  0.77532  1.0000
  I   I82       1.0  0.82049  0.95841  0.87767  1.0000
  I   I83       1.0  0.71731  0.70809  0.12641  1.0000
  I   I84       1.0  0.73491  0.69577  0.43795  1.0000
  I   I85       1.0  0.62947  0.21711  0.18127  1.0000
  I   I86       1.0  0.71645  0.30630  0.12855  1.0000
  I   I87       1.0  0.46527  0.36823  0.01642  1.0000
  I   I88       1.0  0.93004  0.24316  0.94876  1.0000
  I   I89       1.0  0.79601  0.27201  0.58869  1.0000
  I   I90       1.0  0.25863  0.86380  0.31981  1.0000
  I   I91       1.0  0.16611  0.47379  0.59092  1.0000
  I   I92       1.0  0.79355  0.36003  0.29656  1.0000
  I   I93       1.0  0.08226  0.52038  0.70334  1.0000
  I   I94       1.0  0.58300  0.07729  0.96270  1.0000
  I   I95       1.0  0.63565  0.94055  0.45616  1.0000
  I   I96       1.0  0.52805  0.13287  0.14478  1.0000
  I   I97       1.0  0.49494  0.87715  0.21644  1.0000
  I   I98       1.0  0.60742  0.76343  0.41524  1.0000
  I   I99       1.0  0.10942  0.00694  0.27068  1.0000
  I   I100      1.0  0.34506  0.92808  0.38437  1.0000
  I   I101      1.0  0.30521  0.04742  0.51205  1.0000
  I   I102      1.0  0.11866  0.35023  0.46015  1.0000
  I   I103      1.0  0.90784  0.79480  0.26297  1.0000
  I   I104      1.0  0.03664  0.82472  0.18575  1.0000
  I   I105      1.0  0.79049  0.83896  0.45305  1.0000
  I   I106      1.0  0.09934  0.68019  0.83105  1.0000
  I   I107      1.0  0.34733  0.70774  0.90812  1.0000
  I   I108      1.0  0.94577  0.72698  0.75183  1.0000
  I   I109      1.0  0.25557  0.17625  0.29339  1.0000
  I   I110      1.0  0.37663  0.19506  0.40727  1.0000
  I   I111      1.0  0.41209  0.13052  0.61879  1.0000
  I   I112      1.0  0.28624  0.41327  0.36803  1.0000
  I   I113      1.0  0.25583  0.57244  0.18852  1.0000
  I   I114      1.0  0.19673  0.67123  0.48182  1.0000
  I   I115      1.0  0.42524  0.64316  0.71837  1.0000
  I   I116      1.0  0.44575  0.68836  0.48373  1.0000
  I   I117      1.0  0.62528  0.83678  0.82208  1.0000
  I   I118      1.0  0.43034  0.91796  0.63194  1.0000
  I   I119      1.0  0.41793  0.90710  0.97735  1.0000
  I   I120      1.0  0.68543  0.86422  0.02362  1.0000
  I   I121      1.0  0.53966  0.46705  0.48701  1.0000
  I   I122      1.0  0.26794  0.31306  0.88181  1.0000
  I   I123      1.0  0.39586  0.29798  0.96989  1.0000
  I   I124      1.0  0.69845  0.56678  0.80168  1.0000
  I   I125      1.0  0.40916  0.68695  0.25869  1.0000
  I   I126      1.0  0.68483  0.44441  0.98789  1.0000
  I   I127      1.0  0.88795  0.49128  0.85434  1.0000
  I   I128      1.0  0.93532  0.45897  0.13711  1.0000
  I   I129      1.0  0.77633  0.45310  0.67021  1.0000
  I   I130      1.0  0.80417  0.60879  0.62300  1.0000
  I   I131      1.0  0.79235  0.04763  0.93281  1.0000
  I   I132      1.0  0.81754  0.54625  0.22887  1.0000
  I   I133      1.0  0.44061  0.44504  0.84996  1.0000
  I   I134      1.0  0.70108  0.24452  0.19770  1.0000
  I   I135      1.0  0.56195  0.39504  0.24954  1.0000
  I   I136      1.0  0.30999  0.82374  0.21169  1.0000
  I   I137      1.0  0.96685  0.09794  0.83173  1.0000
  I   I138      1.0  0.75647  0.26739  0.71601  1.0000
  I   I139      1.0  0.15388  0.47815  0.80066  1.0000
  I   I140      1.0  0.87767  0.30426  0.22862  1.0000
  I   I141      1.0  0.08894  0.45750  0.61408  1.0000
  I   I142      1.0  0.64053  0.14752  0.75232  1.0000
  I   I143      1.0  0.68638  0.97152  0.47452  1.0000
  I   I144      1.0  0.58952  0.07418  0.22310  1.0000
  I   I145      1.0  0.57110  0.78026  0.19378  1.0000
  I   I146      1.0  0.01552  0.99511  0.20541  1.0000
  I   I147      1.0  0.39091  0.87771  0.26697  1.0000
  I   I148      1.0  0.29038  0.90998  0.45912  1.0000
  I   I149      1.0  0.11366  0.22503  0.52692  1.0000
  I   I150      1.0  0.10914  0.24298  0.93339  1.0000
  I   I151      1.0  0.97758  0.79909  0.25710  1.0000
  I   I152      1.0  0.00922  0.00790  0.50820  1.0000
  I   I153      1.0  0.85518  0.84850  0.45620  1.0000
  I   I154      1.0  0.33015  0.79826  0.05545  1.0000
  I   I155      1.0  0.87189  0.80927  0.88978  1.0000
  I   I156      1.0  0.00490  0.65684  0.85303  1.0000
  I   I157      1.0  0.29580  0.22470  0.25299  1.0000
  I   I158      1.0  0.38189  0.09765  0.50156  1.0000
  I   I159      1.0  0.28516  0.13894  0.99998  1.0000
  I   I160      1.0  0.31404  0.41858  0.50143  1.0000
  I   I161      1.0  0.19342  0.59326  0.29210  1.0000
  I   I162      1.0  0.31608  0.34483  0.45750  1.0000
  I   I163      1.0  0.44181  0.68860  0.81719  1.0000
  I   I164      1.0  0.72913  0.78214  0.89906  1.0000
  I   I165      1.0  0.33047  0.50085  0.90410  1.0000
  I   I166      1.0  0.47122  0.93667  0.74322  1.0000
  I   I167      1.0  0.77699  0.85729  0.13213  1.0000
  I   I168      1.0  0.41362  0.84684  0.58107  1.0000
  I   I169      1.0  0.35997  0.24190  0.85773  1.0000
  I   I170      1.0  0.27818  0.36270  0.96748  1.0000
  I   I171      1.0  0.51994  0.43385  0.60679  1.0000
  I   I172      1.0  0.65171  0.65195  0.78200  1.0000
  I   I173      1.0  0.66743  0.39227  0.05367  1.0000
  I   I174      1.0  0.65300  0.52602  0.94885  1.0000
  I   I175      1.0  0.96882  0.47910  0.93716  1.0000
  I   I176      1.0  0.82768  0.34901  0.64329  1.0000
  I   I177      1.0  0.89214  0.53073  0.67766  1.0000
  I   I178      1.0  0.86149  0.99923  0.96417  1.0000
  I   I179      1.0  0.75905  0.63521  0.18331  1.0000
  I   I180      1.0  0.77980  0.60942  0.45501  1.0000
  I   I181      1.0  0.64592  0.19136  0.32154  1.0000
  I   I182      1.0  0.68031  0.32594  0.25388  1.0000
  I   I183      1.0  0.47246  0.30072  0.87663  1.0000
  I   I184      1.0  0.91591  0.18112  0.86015  1.0000
  I   I185      1.0  0.78316  0.20722  0.58249  1.0000
  I   I186      1.0  0.25250  0.71249  0.33336  1.0000
  I   I187      1.0  0.76515  0.39396  0.17165  1.0000
  I   I188      1.0  0.01540  0.43582  0.53625  1.0000
  I   I189      1.0  0.06718  0.46107  0.76598  1.0000
  I   I190      1.0  0.72415  0.98365  0.64386  1.0000
  I   I191      1.0  0.58004  0.06983  0.43827  1.0000
  I   I192      1.0  0.54967  0.18690  0.71866  1.0000
  I   I193      1.0  0.63088  0.78545  0.27621  1.0000
  I   I194      1.0  0.06766  0.94540  0.29707  1.0000
  I   I195      1.0  0.42731  0.91501  0.33655  1.0000
  I   I196      1.0  0.22949  0.05981  0.45343  1.0000
  I   I197      1.0  0.12852  0.28589  0.38805  1.0000
  I   I198      1.0  0.11800  0.17135  0.93291  1.0000
  I   I199      1.0  0.00140  0.83349  0.05026  1.0000
  I   I200      1.0  0.87131  0.09340  0.48233  1.0000
  I   I201      1.0  0.85226  0.79386  0.38399  1.0000
  I   I202      1.0  0.34870  0.79094  0.89592  1.0000
  I   I203      1.0  0.90600  0.81697  0.74888  1.0000
  I   I204      1.0  0.07776  0.68198  0.98049  1.0000
  I   I205      1.0  0.32539  0.16900  0.41827  1.0000
  I   I206      1.0  0.32483  0.16689  0.57777  1.0000
  I   I207      1.0  0.30584  0.20233  0.02741  1.0000
  I   I208      1.0  0.20954  0.58303  0.04675  1.0000
  I   I209      1.0  0.22195  0.58129  0.44965  1.0000
  I   I210      1.0  0.25409  0.39073  0.54925  1.0000
  I   I211      1.0  0.40475  0.76036  0.55145  1.0000
  I   I212      1.0  0.76239  0.76160  0.76571  1.0000
  I   I213      1.0  0.32500  0.50232  0.75369  1.0000
  I   I214      1.0  0.34769  0.95634  0.90631  1.0000
  I   I215      1.0  0.73342  0.90035  0.99754  1.0000
  I   I216      1.0  0.47471  0.86476  0.52790  1.0000
  I   I217      1.0  0.31003  0.25344  0.74282  1.0000
  I   I218      1.0  0.32776  0.28605  0.99182  1.0000
  I   I219      1.0  0.53385  0.48535  0.70541  1.0000
  I   I220      1.0  0.37169  0.63563  0.21231  1.0000
  I   I221      1.0  0.66519  0.37184  0.89847  1.0000
  I   I222      1.0  0.71303  0.55371  0.95844  1.0000
  I   I223      1.0  0.89378  0.52194  0.04086  1.0000
  I   I224      1.0  0.74120  0.39309  0.64913  1.0000
  I   I225      1.0  0.82464  0.55313  0.77860  1.0000
  I   I226      1.0  0.87834  0.98469  0.82494  1.0000
  I   I227      1.0  0.69587  0.67971  0.01083  1.0000
  I   I228      1.0  0.86435  0.59836  0.45321  1.0000
  I   I229      1.0  0.70621  0.17715  0.24034  1.0000
  I   I230      1.0  0.63036  0.40873  0.22469  1.0000
  I   I231      1.0  0.41239  0.38588  0.91433  1.0000
  I   I232      1.0  0.87736  0.22262  0.03458  1.0000
  I   I233      1.0  0.70157  0.20297  0.76192  1.0000
  I   I234      1.0  0.29264  0.73303  0.22756  1.0000
  I   I235      1.0  0.75653  0.44290  0.34099  1.0000
  I   I236      1.0  0.99144  0.51897  0.49471  1.0000
  I   I237      1.0  0.15090  0.43004  0.70791  1.0000
  I   I238      1.0  0.74394  0.00392  0.50835  1.0000
  I   I239      1.0  0.64087  0.05074  0.35395  1.0000
  I   I240      1.0  0.58657  0.10328  0.73777  1.0000
  I   I241      1.0  0.62170  0.71072  0.29100  1.0000
  I   I242      1.0  0.03241  0.03595  0.29532  1.0000
  I   I243      1.0  0.40326  0.92151  0.19964  1.0000
  I   I244      1.0  0.24551  0.98576  0.45644  1.0000
  I   I245      1.0  0.21914  0.26822  0.43221  1.0000
  I   I246      1.0  0.19595  0.16698  0.97448  1.0000
  I   I247      1.0  0.03822  0.75949  0.13349  1.0000
  I   I248      1.0  0.96283  0.07182  0.44785  1.0000
  I   I249      1.0  0.92394  0.77670  0.42998  1.0000
  I   I250      1.0  0.27914  0.79582  0.91998  1.0000
  I   I251      1.0  0.85261  0.78051  0.77861  1.0000
  I   I252      1.0  0.04379  0.75661  0.86969  1.0000
  I   I253      1.0  0.30609  0.25041  0.37940  1.0000
  I   I254      1.0  0.26282  0.20019  0.69799  1.0000
  I   I255      1.0  0.36506  0.11542  0.02664  1.0000
  I   I256      1.0  0.21754  0.66235  0.04873  1.0000
  I   I257      1.0  0.14668  0.63682  0.42162  1.0000
  I   I258      1.0  0.21115  0.48035  0.29870  1.0000
  I   I259      1.0  0.37717  0.68753  0.55770  1.0000
  I   I260      1.0  0.69875  0.83198  0.78038  1.0000
  I   I261      1.0  0.36034  0.55135  0.88239  1.0000
  I   I262      1.0  0.41435  0.97527  0.89134  1.0000
  I   I263      1.0  0.70256  0.92488  0.12756  1.0000
  I   I264      1.0  0.48761  0.79830  0.63565  1.0000
  I   I265      1.0  0.34510  0.29943  0.73154  1.0000
  I   I266      1.0  0.32919  0.34328  0.08324  1.0000
  I   I267      1.0  0.47446  0.45482  0.45339  1.0000
  I   I268      1.0  0.42670  0.56834  0.25611  1.0000
  I   I269      1.0  0.74073  0.35674  0.97578  1.0000
  I   I270      1.0  0.63711  0.60844  0.91233  1.0000
  I   I271      1.0  0.96915  0.50666  0.08567  1.0000
  I   I272      1.0  0.77223  0.42796  0.53183  1.0000
  I   I273      1.0  0.87983  0.57272  0.82165  1.0000
  I   I274      1.0  0.79059  0.03406  0.78754  1.0000
  I   I275      1.0  0.73175  0.58502  0.25632  1.0000
  I   I276      1.0  0.85573  0.53639  0.52659  1.0000
  I   I277      1.0  0.67901  0.24795  0.32970  1.0000
  I   I278      1.0  0.61654  0.35684  0.35213  1.0000
  I   I279      1.0  0.52556  0.32398  0.94317  1.0000
  I   I280      1.0  0.99766  0.15535  0.89105  1.0000
  I   I281      1.0  0.71150  0.24363  0.65065  1.0000
  I   I282      1.0  0.32900  0.76629  0.32161  1.0000
  I   I283      1.0  0.77293  0.46159  0.19965  1.0000
  I   I284      1.0  0.06890  0.44627  0.46265  1.0000
  I   I285      1.0  0.14549  0.39898  0.84110  1.0000
  I   I286      1.0  0.66824  0.05633  0.56810  1.0000
  I   I287      1.0  0.55407  0.13225  0.32981  1.0000
  I   I288      1.0  0.52677  0.13343  0.88909  1.0000
  I   I289      1.0  0.55035  0.75874  0.33592  1.0000
  I   I290      1.0  0.05148  0.91901  0.10518  1.0000
  I   I291      1.0  0.03167  0.10411  0.17345  1.0000
  I   I292      1.0  0.30284  0.00137  0.39827  1.0000
  I   I293      1.0  0.11711  0.20437  0.38203  1.0000
  I   I294      1.0  0.10872  0.28969  0.82279  1.0000
  I   I295      1.0  0.93826  0.87938  0.19588  1.0000
  I   I296      1.0  0.92903  0.02188  0.58186  1.0000
  I   I297      1.0  0.81003  0.92440  0.43487  1.0000
  I   I298      1.0  0.25448  0.79336  0.76579  1.0000
  I   I299      1.0  0.34248  0.63594  0.95928  1.0000
  I   I300      1.0  0.00707  0.71178  0.94668  1.0000
  I   I301      1.0  0.33377  0.17827  0.14587  1.0000
  I   I302      1.0  0.38206  0.26594  0.40980  1.0000
  I   I303      1.0  0.28690  0.12459  0.58642  1.0000
  I   I304      1.0  0.23482  0.46631  0.45049  1.0000
  I   I305      1.0  0.18267  0.66858  0.31379  1.0000
  I   I306      1.0  0.08836  0.58481  0.50445  1.0000
  I   I307      1.0  0.41374  0.72497  0.67744  1.0000
  I   I308      1.0  0.65616  0.80744  0.67232  1.0000
  I   I309      1.0  0.30376  0.53280  0.60252  1.0000
  I   I310      1.0  0.45353  0.89061  0.84662  1.0000
  I   I311      1.0  0.77336  0.75512  0.13225  1.0000
  I   I312      1.0  0.63455  0.90952  0.11077  1.0000
  I   I313      1.0  0.54207  0.52562  0.58820  1.0000
  I   I314      1.0  0.28703  0.40402  0.82769  1.0000
  I   I315      1.0  0.26633  0.44585  0.02040  1.0000
  I   I316      1.0  0.58231  0.64241  0.80474  1.0000
  I   I317      1.0  0.50282  0.52210  0.17850  1.0000
  I   I318      1.0  0.65283  0.47800  0.78254  1.0000
  I   I319      1.0  0.99794  0.42627  0.82208  1.0000
  I   I320      1.0  0.03820  0.45644  0.19045  1.0000
  I   I321      1.0  0.84626  0.43544  0.74244  1.0000
  I   I322      1.0  0.77774  0.08621  0.07028  1.0000
  I   I323      1.0  0.76131  0.60143  0.06470  1.0000
  I   I324      1.0  0.79757  0.66116  0.51381  1.0000
  I   I325      1.0  0.68127  0.14796  0.13890  1.0000
  I   I326      1.0  0.62205  0.35662  0.14295  1.0000
  I   I327      1.0  0.46386  0.37276  0.82360  1.0000
  I   I328      1.0  0.00586  0.09192  0.96677  1.0000
  I   I329      1.0  0.72689  0.28593  0.52082  1.0000
  I   I330      1.0  0.24845  0.79021  0.34721  1.0000
  I   I331      1.0  0.22193  0.43226  0.71839  1.0000
  I   I332      1.0  0.83970  0.39225  0.25768  1.0000
  I   I333      1.0  0.00054  0.53142  0.73509  1.0000
  I   I334      1.0  0.56523  0.18009  0.86674  1.0000
  I   I335      1.0  0.61265  0.94888  0.61138  1.0000
  I   I336      1.0  0.48380  0.12740  0.25619  1.0000
  I   I337      1.0  0.47467  0.83683  0.33006  1.0000
  I   I338      1.0  0.11318  0.87104  0.21494  1.0000
  I   I339      1.0  0.11299  0.06600  0.18667  1.0000
  I   I340      1.0  0.31647  0.96814  0.53909  1.0000
  I   I341      1.0  0.18763  0.33020  0.52738  1.0000
  I   I342      1.0  0.10731  0.22187  0.77160  1.0000
  I   I343      1.0  0.87651  0.85297  0.15454  1.0000
  I   I344      1.0  0.98781  0.06493  0.65043  1.0000
  I   I345      1.0  0.75304  0.91408  0.36950  1.0000
  I   I346      1.0  0.26714  0.85824  0.82103  1.0000
  I   I347      1.0  0.27664  0.71316  0.89575  1.0000
  I   I348      1.0  0.95219  0.77251  0.86723  1.0000
  I   I349      1.0  0.30307  0.12748  0.16436  1.0000
  I   I350      1.0  0.34569  0.28333  0.27284  1.0000
  I   I351      1.0  0.29941  0.10482  0.71856  1.0000
  I   I352      1.0  0.17117  0.45263  0.39958  1.0000
  I   I353      1.0  0.25013  0.64767  0.21653  1.0000
  I   I354      1.0  0.15310  0.59995  0.51977  1.0000
  I   I355      1.0  0.47302  0.68058  0.62197  1.0000
  I   I356      1.0  0.66775  0.77364  0.88040  1.0000
  I   I357      1.0  0.36286  0.55262  0.58596  1.0000
  I   I358      1.0  0.42118  0.86026  0.71338  1.0000
  I   I359      1.0  0.83825  0.77307  0.13617  1.0000
  I   I360      1.0  0.65016  0.94173  0.93722  1.0000
  I   I361      1.0  0.60435  0.44684  0.61879  1.0000
  I   I362      1.0  0.26783  0.34401  0.75494  1.0000
  I   I363      1.0  0.33235  0.42344  0.12491  1.0000
  I   I364      1.0  0.63929  0.59695  0.69575  1.0000
  I   I365      1.0  0.49208  0.52500  0.32527  1.0000
  I   I366      1.0  0.71110  0.41247  0.86184  1.0000
  I   I367      1.0  0.93710  0.41639  0.81656  1.0000
  I   I368      1.0  0.99919  0.40460  0.22418  1.0000
  I   I369      1.0  0.88552  0.35744  0.71569  1.0000
  I   I370      1.0  0.82234  0.01003  0.08295  1.0000
  I   I371      1.0  0.76816  0.53530  0.13419  1.0000
  I   I372      1.0  0.72509  0.70828  0.58225  1.0000
  I   I373      1.0  0.69794  0.11028  0.27035  1.0000
  I   I374      1.0  0.66744  0.28051  0.07317  1.0000
  I   I375      1.0  0.50452  0.40052  0.94538  1.0000
  I   I376      1.0  0.97025  0.16745  0.03750  1.0000
  I   I377      1.0  0.74072  0.22765  0.85011  1.0000
  I   I378      1.0  0.23817  0.81178  0.21902  1.0000
  I   I379      1.0  0.18844  0.51058  0.69535  1.0000
  I   I380      1.0  0.84340  0.37426  0.11352  1.0000
  I   I381      1.0  0.04229  0.52528  0.57676  1.0000
  I   I382      1.0  0.60754  0.13069  0.99709  1.0000
  I   I383      1.0  0.69824  0.90096  0.57343  1.0000
  I   I384      1.0  0.51925  0.06554  0.14252  1.0000
