data_image0
_chemical_formula_structural       Ti96I384
_chemical_formula_sum              "Ti96 I384"
_cell_length_a       72.5493
_cell_length_b       72.5469
_cell_length_c       35.4731
_cell_angle_alpha    88.7757
_cell_angle_beta     88.7757
_cell_angle_gamma    62.1586

_space_group_name_H-M_alt    "P 1"
_space_group_IT_number       1

loop_
  _space_group_symop_operation_xyz
  'x, y, z'

loop_
  _atom_site_type_symbol
  _atom_site_label
  _atom_site_symmetry_multiplicity
  _atom_site_fract_x
  _atom_site_fract_y
  _atom_site_fract_z
  _atom_site_occupancy
  Ti  Ti1       1.0  0.53181  0.53059  0.55431  1.0000
  Ti  Ti2       1.0  0.19330  0.93925  0.20493  1.0000
  Ti  Ti3       1.0  0.42822  0.00082  0.81460  1.0000
  Ti  Ti4       1.0  0.96939  0.46209  0.01722  1.0000
  Ti  Ti5       1.0  0.66005  0.46690  0.23312  1.0000
  Ti  Ti6       1.0  0.53088  0.10516  0.28473  1.0000
  Ti  Ti7       1.0  0.58445  0.83846  0.27865  1.0000
  Ti  Ti8       1.0  0.19266  0.56736  0.98794  1.0000
  Ti  Ti9       1.0  0.44058  0.30390  0.26159  1.0000
  Ti  Ti10      1.0  0.63423  0.57342  0.71466  1.0000
  Ti  Ti11      1.0  0.24228  0.16509  0.71978  1.0000
  Ti  Ti12      1.0  0.92245  0.31201  0.03699  1.0000
  Ti  Ti13      1.0  0.67484  0.74296  0.45378  1.0000
  Ti  Ti14      1.0  0.99969  0.43163  0.09202  1.0000
  Ti  Ti15      1.0  0.71678  0.61676  0.60441  1.0000
  Ti  Ti16      1.0  0.31803  0.63043  0.94770  1.0000
  Ti  Ti17      1.0  0.08652  0.18788  0.98410  1.0000
  Ti  Ti18      1.0  0.26683  0.23767  0.03957  1.0000
  Ti  Ti19      1.0  0.11493  0.79406  0.38495  1.0000
  Ti  Ti20      1.0  0.27277  0.80222  0.45506  1.0000
  Ti  Ti21      1.0  0.16168  0.59881  0.06052  1.0000
  Ti  Ti22      1.0  0.04179  0.27758  0.20808  1.0000
  Ti  Ti23      1.0  0.21971  0.01440  0.32063  1.0000
  Ti  Ti24      1.0  0.83844  0.02388  0.30004  1.0000
  Ti  Ti25      1.0  0.48758  0.43970  0.32397  1.0000
  Ti  Ti26      1.0  0.62755  0.88836  0.60520  1.0000
  Ti  Ti27      1.0  0.76927  0.36208  0.27187  1.0000
  Ti  Ti28      1.0  0.29140  0.06922  0.12995  1.0000
  Ti  Ti29      1.0  0.28672  0.72139  0.04992  1.0000
  Ti  Ti30      1.0  0.28792  0.92091  0.63794  1.0000
  Ti  Ti31      1.0  0.37072  0.98394  0.48650  1.0000
  Ti  Ti32      1.0  0.39196  0.84777  0.94395  1.0000
  Ti  Ti33      1.0  0.26668  0.65185  0.36866  1.0000
  Ti  Ti34      1.0  0.78489  0.48868  0.11745  1.0000
  Ti  Ti35      1.0  0.06173  0.53488  0.33227  1.0000
  Ti  Ti36      1.0  0.84796  0.14633  0.99781  1.0000
  Ti  Ti37      1.0  0.13422  0.14473  0.78836  1.0000
  Ti  Ti38      1.0  0.56029  0.94243  0.94537  1.0000
  Ti  Ti39      1.0  0.53096  0.93788  0.89160  1.0000
  Ti  Ti40      1.0  0.51105  0.76227  0.75599  1.0000
  Ti  Ti41      1.0  0.63523  0.42354  0.86337  1.0000
  Ti  Ti42      1.0  0.98863  0.66977  0.71245  1.0000
  Ti  Ti43      1.0  0.95770  0.05095  0.21073  1.0000
  Ti  Ti44      1.0  0.56996  0.44390  0.88246  1.0000
  Ti  Ti45      1.0  0.14491  0.17029  0.54924  1.0000
  Ti  Ti46      1.0  0.40511  0.04735  0.83042  1.0000
  Ti  Ti47      1.0  0.07197  0.97722  0.90939  1.0000
  Ti  Ti48      1.0  0.07943  0.93671  0.22047  1.0000
  Ti  Ti49      1.0  0.87795  0.84773  0.66121  1.0000
  Ti  Ti50      1.0  0.88393  0.49394  0.16269  1.0000
  Ti  Ti51      1.0  0.22493  0.91959  0.13902  1.0000
  Ti  Ti52      1.0  0.73736  0.45498  0.64357  1.0000
  Ti  Ti53      1.0  0.79767  0.72577  0.09501  1.0000
  Ti  Ti54      1.0  0.53582  0.22119  0.20557  1.0000
  Ti  Ti55      1.0  0.62763  0.84124  0.25350  1.0000
  Ti  Ti56      1.0  0.16889  0.70367  0.87029  1.0000
  Ti  Ti57      1.0  0.41530  0.31291  0.18621  1.0000
  Ti  Ti58      1.0  0.36411  0.51730  0.47472  1.0000
  Ti  Ti59      1.0  0.69674  0.85932  0.41809  1.0000
  Ti  Ti60      1.0  0.90361  0.27536  0.05694  1.0000
  Ti  Ti61      1.0  0.69162  0.60201  0.52589  1.0000
  Ti  Ti62      1.0  0.72989  0.72728  0.38800  1.0000
  Ti  Ti63      1.0  0.07604  0.71175  0.11883  1.0000
  Ti  Ti64      1.0  0.24858  0.23092  0.10622  1.0000
  Ti  Ti65      1.0  0.91747  0.72046  0.32873  1.0000
  Ti  Ti66      1.0  0.69766  0.25620  0.28919  1.0000
  Ti  Ti67      1.0  0.90547  0.54963  0.34864  1.0000
  Ti  Ti68      1.0  0.10939  0.76086  0.31408  1.0000
  Ti  Ti69      1.0  0.61808  0.85592  0.63113  1.0000
  Ti  Ti70      1.0  0.90606  0.59732  0.29697  1.0000
  Ti  Ti71      1.0  0.19960  0.05711  0.38442  1.0000
  Ti  Ti72      1.0  0.07039  0.01702  0.83343  1.0000
  Ti  Ti73      1.0  0.74949  0.38784  0.18003  1.0000
  Ti  Ti74      1.0  0.53496  0.40865  0.36089  1.0000
  Ti  Ti75      1.0  0.45837  0.08466  0.07740  1.0000
  Ti  Ti76      1.0  0.23160  0.10767  0.17255  1.0000
  Ti  Ti77      1.0  0.06625  0.70858  0.55152  1.0000
  Ti  Ti78      1.0  0.24139  0.76526  0.96175  1.0000
  Ti  Ti79      1.0  0.82029  0.78095  0.23054  1.0000
  Ti  Ti80      1.0  0.00226  0.45638  0.51240  1.0000
  Ti  Ti81      1.0  0.35367  0.89148  0.93425  1.0000
  Ti  Ti82      1.0  0.95675  0.19053  0.39144  1.0000
  Ti  Ti83      1.0  0.10253  0.51058  0.41791  1.0000
  Ti  Ti84      1.0  0.84730  0.17080  0.07588  1.0000
  Ti  Ti85      1.0  0.11936  0.11612  0.77699  1.0000
  Ti  Ti86      1.0  0.72031  0.21453  0.40044  1.0000
  Ti  Ti87      1.0  0.11199  0.22035  0.60734  1.0000
  Ti  Ti88      1.0  0.77221  0.48089  0.59580  1.0000
  Ti  Ti89      1.0  0.35662  0.43053  0.43995  1.0000
  Ti  Ti90      1.0  0.95045  0.65449  0.78206  1.0000
  Ti  Ti91      1.0  0.24494  0.49281  0.37457  1.0000
  Ti  Ti92      1.0  0.51211  0.71565  0.40873  1.0000
  Ti  Ti93      1.0  0.97667  0.18821  0.02096  1.0000
  Ti  Ti94      1.0  0.02877  0.93656  0.22510  1.0000
  Ti  Ti95      1.0  0.35542  0.37733  0.07777  1.0000
  Ti  Ti96      1.0  0.87858  0.38077  0.48015  1.0000
  I   I1        1.0  0.10210  0.99256  0.88088  1.0000
  I   I2        1.0  0.18248  0.95155  0.12908  1.0000
  I   I3        1.0  0.85155  0.87400  0.70558  1.0000
  I   I4        1.0  0.83589  0.71991  0.06639  1.0000
  I   I5        1.0  0.49871  0.09823  0.28037  1.0000
  I   I6        1.0  0.56955  0.19565  0.16338  1.0000
  I   I7        1.0  0.21274  0.57892  0.93111  1.0000
  I   I8        1.0  0.15279  0.68445  0.90722  1.0000
  I   I9        1.0  0.39706  0.33529  0.26998  1.0000
  I   I10       1.0  0.64778  0.60094  0.72714  1.0000
  I   I11       1.0  0.21835  0.20168  0.74857  1.0000
  I   I12       1.0  0.67661  0.47974  0.18073  1.0000
  I   I13       1.0  0.69290  0.72616  0.38483  1.0000
  I   I14       1.0  0.06509  0.73396  0.05737  1.0000
  I   I15       1.0  0.70935  0.60807  0.67648  1.0000
  I   I16       1.0  0.60924  0.57745  0.76493  1.0000
  I   I17       1.0  0.72234  0.27002  0.25584  1.0000
  I   I18       1.0  0.25770  0.27050  0.99976  1.0000
  I   I19       1.0  0.26292  0.82282  0.52235  1.0000
  I   I20       1.0  0.27537  0.16384  0.68096  1.0000
  I   I21       1.0  0.16050  0.60929  0.98286  1.0000
  I   I22       1.0  0.18462  0.00957  0.33578  1.0000
  I   I23       1.0  0.22224  0.02884  0.44251  1.0000
  I   I24       1.0  0.90154  0.54424  0.42622  1.0000
  I   I25       1.0  0.47675  0.48013  0.30583  1.0000
  I   I26       1.0  0.42840  0.07540  0.09045  1.0000
  I   I27       1.0  0.75007  0.36431  0.33865  1.0000
  I   I28       1.0  0.31754  0.03281  0.14013  1.0000
  I   I29       1.0  0.27519  0.69449  0.01464  1.0000
  I   I30       1.0  0.27666  0.95384  0.67751  1.0000
  I   I31       1.0  0.03677  0.43583  0.47225  1.0000
  I   I32       1.0  0.35460  0.85062  0.92344  1.0000
  I   I33       1.0  0.84048  0.74351  0.18800  1.0000
  I   I34       1.0  0.09561  0.48818  0.36880  1.0000
  I   I35       1.0  0.88710  0.13165  0.02766  1.0000
  I   I36       1.0  0.75645  0.48501  0.08162  1.0000
  I   I37       1.0  0.15781  0.09853  0.81707  1.0000
  I   I38       1.0  0.55219  0.90210  0.93007  1.0000
  I   I39       1.0  0.09149  0.15152  0.75147  1.0000
  I   I40       1.0  0.56815  0.42789  0.94649  1.0000
  I   I41       1.0  0.94389  0.68541  0.71398  1.0000
  I   I42       1.0  0.54438  0.73061  0.73481  1.0000
  I   I43       1.0  0.33462  0.52555  0.42744  1.0000
  I   I44       1.0  0.60015  0.46047  0.83341  1.0000
  I   I45       1.0  0.16289  0.16698  0.47772  1.0000
  I   I46       1.0  0.32807  0.37435  0.12315  1.0000
  I   I47       1.0  0.09823  0.93650  0.91496  1.0000
  I   I48       1.0  0.99688  0.96792  0.25633  1.0000
  I   I49       1.0  0.91903  0.83330  0.67856  1.0000
  I   I50       1.0  0.21842  0.95844  0.17095  1.0000
  I   I51       1.0  0.22962  0.91414  0.23432  1.0000
  I   I52       1.0  0.98481  0.49655  0.51145  1.0000
  I   I53       1.0  0.80290  0.69693  0.14294  1.0000
  I   I54       1.0  0.50858  0.23643  0.14782  1.0000
  I   I55       1.0  0.62040  0.80286  0.26731  1.0000
  I   I56       1.0  0.12156  0.62741  0.05819  1.0000
  I   I57       1.0  0.39536  0.35193  0.14767  1.0000
  I   I58       1.0  0.61062  0.58303  0.65821  1.0000
  I   I59       1.0  0.67637  0.84646  0.46944  1.0000
  I   I60       1.0  0.92915  0.33948  0.06973  1.0000
  I   I61       1.0  0.75852  0.70332  0.43512  1.0000
  I   I62       1.0  0.74241  0.68962  0.35763  1.0000
  I   I63       1.0  0.05264  0.73472  0.17321  1.0000
  I   I64       1.0  0.34373  0.64169  0.92983  1.0000
  I   I65       1.0  0.90975  0.75624  0.36675  1.0000
  I   I66       1.0  0.68644  0.28797  0.33890  1.0000
  I   I67       1.0  0.14776  0.80036  0.38422  1.0000
  I   I68       1.0  0.31219  0.78460  0.44937  1.0000
  I   I69       1.0  0.58959  0.88102  0.67496  1.0000
  I   I70       1.0  0.88946  0.59442  0.37030  1.0000
  I   I71       1.0  0.20909  0.08707  0.38333  1.0000
  I   I72       1.0  0.09690  0.03016  0.81344  1.0000
  I   I73       1.0  0.73758  0.36612  0.13037  1.0000
  I   I74       1.0  0.65866  0.89032  0.57143  1.0000
  I   I75       1.0  0.63752  0.88005  0.68067  1.0000
  I   I76       1.0  0.07631  0.68462  0.61149  1.0000
  I   I77       1.0  0.03769  0.73985  0.58572  1.0000
  I   I78       1.0  0.57328  0.50871  0.54095  1.0000
  I   I79       1.0  0.27670  0.67892  0.34848  1.0000
  I   I80       1.0  0.40321  0.95725  0.52243  1.0000
  I   I81       1.0  0.34349  0.90287  0.86518  1.0000
  I   I82       1.0  0.93440  0.19424  0.33205  1.0000
  I   I83       1.0  0.03589  0.52352  0.30958  1.0000
  I   I84       1.0  0.81492  0.13513  0.97981  1.0000
  I   I85       1.0  0.14571  0.13935  0.71576  1.0000
  I   I86       1.0  0.67617  0.26872  0.23084  1.0000
  I   I87       1.0  0.52022  0.95263  0.96799  1.0000
  I   I88       1.0  0.50636  0.79361  0.70941  1.0000
  I   I89       1.0  0.64962  0.39593  0.81169  1.0000
  I   I90       1.0  0.91028  0.66436  0.78466  1.0000
  I   I91       1.0  0.24905  0.51764  0.42135  1.0000
  I   I92       1.0  0.52506  0.72677  0.46924  1.0000
  I   I93       1.0  0.54327  0.48410  0.89920  1.0000
  I   I94       1.0  0.01969  0.93437  0.15617  1.0000
  I   I95       1.0  0.36334  0.07061  0.83511  1.0000
  I   I96       1.0  0.89459  0.40396  0.46463  1.0000
  I   I97       1.0  0.43732  0.97866  0.88958  1.0000
  I   I98       1.0  0.51171  0.56945  0.55482  1.0000
  I   I99       1.0  0.23425  0.92442  0.07038  1.0000
  I   I100      1.0  0.99268  0.47066  0.08052  1.0000
  I   I101      1.0  0.78168  0.44908  0.63425  1.0000
  I   I102      1.0  0.68643  0.44890  0.28773  1.0000
  I   I103      1.0  0.58121  0.80788  0.32637  1.0000
  I   I104      1.0  0.61944  0.83866  0.33423  1.0000
  I   I105      1.0  0.47984  0.29752  0.27092  1.0000
  I   I106      1.0  0.89388  0.34339  0.98941  1.0000
  I   I107      1.0  0.66616  0.53432  0.72174  1.0000
  I   I108      1.0  0.95131  0.26972  0.07000  1.0000
  I   I109      1.0  0.67472  0.63240  0.59399  1.0000
  I   I110      1.0  0.72743  0.75241  0.33174  1.0000
  I   I111      1.0  0.11102  0.68831  0.15553  1.0000
  I   I112      1.0  0.27864  0.19418  0.08058  1.0000
  I   I113      1.0  0.94795  0.69142  0.29546  1.0000
  I   I114      1.0  0.06072  0.22873  0.97599  1.0000
  I   I115      1.0  0.93608  0.51589  0.33213  1.0000
  I   I116      1.0  0.92605  0.58593  0.23146  1.0000
  I   I117      1.0  0.14519  0.75370  0.37889  1.0000
  I   I118      1.0  0.01239  0.30089  0.25738  1.0000
  I   I119      1.0  0.88454  0.56942  0.27296  1.0000
  I   I120      1.0  0.07514  0.99115  0.97762  1.0000
  I   I121      1.0  0.78058  0.39320  0.14185  1.0000
  I   I122      1.0  0.45713  0.43174  0.31814  1.0000
  I   I123      1.0  0.44977  0.10828  0.01809  1.0000
  I   I124      1.0  0.29663  0.93833  0.57819  1.0000
  I   I125      1.0  0.24998  0.07635  0.11857  1.0000
  I   I126      1.0  0.29108  0.75121  0.08110  1.0000
  I   I127      1.0  0.23940  0.64912  0.41389  1.0000
  I   I128      1.0  0.00406  0.45164  0.98238  1.0000
  I   I129      1.0  0.31554  0.89586  0.95435  1.0000
  I   I130      1.0  0.84194  0.18049  0.97579  1.0000
  I   I131      1.0  0.98326  0.18968  0.34227  1.0000
  I   I132      1.0  0.08801  0.51390  0.27472  1.0000
  I   I133      1.0  0.49750  0.93510  0.86739  1.0000
  I   I134      1.0  0.54163  0.97053  0.87995  1.0000
  I   I135      1.0  0.73148  0.23175  0.33686  1.0000
  I   I136      1.0  0.95387  0.68175  0.82640  1.0000
  I   I137      1.0  0.79997  0.48902  0.61253  1.0000
  I   I138      1.0  0.34111  0.44816  0.50543  1.0000
  I   I139      1.0  0.26466  0.49071  0.30959  1.0000
  I   I140      1.0  0.47153  0.73950  0.40958  1.0000
  I   I141      1.0  0.00902  0.15566  0.99267  1.0000
  I   I142      1.0  0.07511  0.90120  0.23491  1.0000
  I   I143      1.0  0.40682  0.07905  0.79641  1.0000
  I   I144      1.0  0.89478  0.35624  0.42143  1.0000
  I   I145      1.0  0.53413  0.52471  0.62377  1.0000
  I   I146      1.0  0.17244  0.92190  0.23540  1.0000
  I   I147      1.0  0.41565  0.03362  0.74930  1.0000
  I   I148      1.0  0.73514  0.49548  0.64212  1.0000
  I   I149      1.0  0.66035  0.43492  0.20077  1.0000
  I   I150      1.0  0.53498  0.13026  0.32584  1.0000
  I   I151      1.0  0.58900  0.87092  0.22819  1.0000
  I   I152      1.0  0.20612  0.58051  0.04151  1.0000
  I   I153      1.0  0.43701  0.28982  0.13186  1.0000
  I   I154      1.0  0.97100  0.03197  0.28097  1.0000
  I   I155      1.0  0.21344  0.16057  0.68206  1.0000
  I   I156      1.0  0.92403  0.28196  0.98580  1.0000
  I   I157      1.0  0.74875  0.57787  0.58759  1.0000
  I   I158      1.0  0.06665  0.68138  0.11104  1.0000
  I   I159      1.0  0.72853  0.58021  0.47865  1.0000
  I   I160      1.0  0.21895  0.21357  0.11241  1.0000
  I   I161      1.0  0.06774  0.16513  0.00421  1.0000
  I   I162      1.0  0.28777  0.21161  0.99299  1.0000
  I   I163      1.0  0.10399  0.80068  0.29952  1.0000
  I   I164      1.0  0.12185  0.72164  0.33306  1.0000
  I   I165      1.0  0.16834  0.56212  0.93495  1.0000
  I   I166      1.0  0.02416  0.27365  0.14101  1.0000
  I   I167      1.0  0.23028  0.98192  0.36423  1.0000
  I   I168      1.0  0.80906  0.05297  0.26337  1.0000
  I   I169      1.0  0.54503  0.39031  0.42762  1.0000
  I   I170      1.0  0.50527  0.39786  0.35493  1.0000
  I   I171      1.0  0.73146  0.36763  0.22806  1.0000
  I   I172      1.0  0.28947  0.07791  0.05691  1.0000
  I   I173      1.0  0.22585  0.74356  0.92942  1.0000
  I   I174      1.0  0.31878  0.88366  0.64620  1.0000
  I   I175      1.0  0.33843  0.97535  0.48130  1.0000
  I   I176      1.0  0.39761  0.88212  0.90955  1.0000
  I   I177      1.0  0.81523  0.81369  0.27108  1.0000
  I   I178      1.0  0.96726  0.20850  0.45099  1.0000
  I   I179      1.0  0.05324  0.54579  0.42366  1.0000
  I   I180      1.0  0.84444  0.17123  0.15193  1.0000
  I   I181      1.0  0.09048  0.10763  0.80744  1.0000
  I   I182      1.0  0.69412  0.23783  0.45189  1.0000
  I   I183      1.0  0.14785  0.13513  0.52670  1.0000
  I   I184      1.0  0.74251  0.43936  0.57730  1.0000
  I   I185      1.0  0.33577  0.41159  0.41403  1.0000
  I   I186      1.0  0.02951  0.64567  0.71335  1.0000
  I   I187      1.0  0.53807  0.69038  0.35418  1.0000
  I   I188      1.0  0.53984  0.45676  0.83413  1.0000
  I   I189      1.0  0.12311  0.17216  0.61610  1.0000
  I   I190      1.0  0.39338  0.01592  0.84942  1.0000
  I   I191      1.0  0.90390  0.46843  0.21532  1.0000
  I   I192      1.0  0.05284  0.94378  0.28731  1.0000
  I   I193      1.0  0.31173  0.68585  0.08613  1.0000
  I   I194      1.0  0.89499  0.47624  0.09709  1.0000
  I   I195      1.0  0.43135  0.96664  0.79075  1.0000
  I   I196      1.0  0.92928  0.49873  0.00734  1.0000
  I   I197      1.0  0.39690  0.47831  0.46010  1.0000
  I   I198      1.0  0.55514  0.06756  0.30283  1.0000
  I   I199      1.0  0.64356  0.81903  0.18941  1.0000
  I   I200      1.0  0.20440  0.70196  0.90551  1.0000
  I   I201      1.0  0.43452  0.29806  0.33636  1.0000
  I   I202      1.0  0.67624  0.90046  0.40212  1.0000
  I   I203      1.0  0.66394  0.83743  0.60867  1.0000
  I   I204      1.0  0.89976  0.26904  0.12462  1.0000
  I   I205      1.0  0.66801  0.74080  0.52962  1.0000
  I   I206      1.0  0.99343  0.42347  0.16187  1.0000
  I   I207      1.0  0.72981  0.64526  0.61398  1.0000
  I   I208      1.0  0.34108  0.59146  0.96851  1.0000
  I   I209      1.0  0.11849  0.17396  0.02982  1.0000
  I   I210      1.0  0.80334  0.79590  0.16754  1.0000
  I   I211      1.0  0.87314  0.54320  0.35427  1.0000
  I   I212      1.0  0.25111  0.82581  0.40079  1.0000
  I   I213      1.0  0.60308  0.83704  0.58304  1.0000
  I   I214      1.0  0.05835  0.29883  0.17034  1.0000
  I   I215      1.0  0.24513  0.98956  0.25996  1.0000
  I   I216      1.0  0.83034  0.99477  0.27017  1.0000
  I   I217      1.0  0.49055  0.44582  0.39807  1.0000
  I   I218      1.0  0.49115  0.04473  0.07035  1.0000
  I   I219      1.0  0.80135  0.35868  0.30440  1.0000
  I   I220      1.0  0.05513  0.69330  0.49268  1.0000
  I   I221      1.0  0.24376  0.74465  0.04773  1.0000
  I   I222      1.0  0.24969  0.12576  0.12965  1.0000
  I   I223      1.0  0.34718  0.02670  0.50397  1.0000
  I   I224      1.0  0.42073  0.81610  0.90457  1.0000
  I   I225      1.0  0.25986  0.63501  0.30715  1.0000
  I   I226      1.0  0.91884  0.20308  0.44325  1.0000
  I   I227      1.0  0.03418  0.57232  0.30126  1.0000
  I   I228      1.0  0.82058  0.21242  0.07744  1.0000
  I   I229      1.0  0.10055  0.18079  0.91464  1.0000
  I   I230      1.0  0.58915  0.90729  0.97607  1.0000
  I   I231      1.0  0.53835  0.93348  0.81673  1.0000
  I   I232      1.0  0.95495  0.45230  0.08575  1.0000
  I   I233      1.0  0.64465  0.41038  0.93168  1.0000
  I   I234      1.0  0.98103  0.63764  0.72905  1.0000
  I   I235      1.0  0.94289  0.09163  0.21053  1.0000
  I   I236      1.0  0.95416  0.18851  0.96669  1.0000
  I   I237      1.0  0.20814  0.49722  0.37993  1.0000
  I   I238      1.0  0.32980  0.41013  0.03422  1.0000
  I   I239      1.0  0.87533  0.38155  0.55566  1.0000
  I   I240      1.0  0.10489  0.93910  0.27213  1.0000
  I   I241      1.0  0.50857  0.52567  0.50658  1.0000
  I   I242      1.0  0.16869  0.97540  0.23547  1.0000
  I   I243      1.0  0.46724  0.99627  0.79070  1.0000
  I   I244      1.0  0.74605  0.50129  0.53998  1.0000
  I   I245      1.0  0.76106  0.75429  0.11328  1.0000
  I   I246      1.0  0.54579  0.10464  0.22128  1.0000
  I   I247      1.0  0.56285  0.83177  0.23213  1.0000
  I   I248      1.0  0.16009  0.56380  0.06053  1.0000
  I   I249      1.0  0.43735  0.33430  0.20807  1.0000
  I   I250      1.0  0.73108  0.84904  0.45164  1.0000
  I   I251      1.0  0.25267  0.13553  0.76811  1.0000
  I   I252      1.0  0.96060  0.30205  0.00823  1.0000
  I   I253      1.0  0.66401  0.71352  0.45779  1.0000
  I   I254      1.0  0.04064  0.41559  0.09950  1.0000
  I   I255      1.0  0.69069  0.56874  0.55942  1.0000
  I   I256      1.0  0.90133  0.73373  0.26007  1.0000
  I   I257      1.0  0.17040  0.14758  0.80379  1.0000
  I   I258      1.0  0.23597  0.24755  0.17108  1.0000
  I   I259      1.0  0.93788  0.57089  0.34246  1.0000
  I   I260      1.0  0.10380  0.81798  0.45228  1.0000
  I   I261      1.0  0.22197  0.52886  0.99381  1.0000
  I   I262      1.0  0.07015  0.24443  0.24749  1.0000
  I   I263      1.0  0.18947  0.05711  0.31325  1.0000
  I   I264      1.0  0.83506  0.02083  0.37133  1.0000
  I   I265      1.0  0.51600  0.42383  0.25878  1.0000
  I   I266      1.0  0.61518  0.87608  0.55126  1.0000
  I   I267      1.0  0.71998  0.42212  0.15544  1.0000
  I   I268      1.0  0.31705  0.08183  0.14640  1.0000
  I   I269      1.0  0.21977  0.80376  0.95743  1.0000
  I   I270      1.0  0.19171  0.13395  0.15808  1.0000
  I   I271      1.0  0.38409  0.98442  0.41653  1.0000
  I   I272      1.0  0.37759  0.87531  0.00624  1.0000
  I   I273      1.0  0.29690  0.61695  0.40569  1.0000
  I   I274      1.0  0.81176  0.45467  0.15585  1.0000
  I   I275      1.0  0.09078  0.54381  0.36178  1.0000
  I   I276      1.0  0.87907  0.18099  0.06955  1.0000
  I   I277      1.0  0.96316  0.15669  0.41958  1.0000
  I   I278      1.0  0.55677  0.95955  0.00965  1.0000
  I   I279      1.0  0.17893  0.14974  0.58174  1.0000
  I   I280      1.0  0.75389  0.41599  0.67450  1.0000
  I   I281      1.0  0.65469  0.44797  0.84743  1.0000
  I   I282      1.0  0.98992  0.68914  0.65170  1.0000
  I   I283      1.0  0.99227  0.03199  0.17476  1.0000
  I   I284      1.0  0.94455  0.19397  0.06873  1.0000
  I   I285      1.0  0.09433  0.22008  0.67707  1.0000
  I   I286      1.0  0.37124  0.34206  0.04039  1.0000
  I   I287      1.0  0.06306  0.01526  0.76200  1.0000
  I   I288      1.0  0.11124  0.91603  0.16725  1.0000
  I   I289      1.0  0.87398  0.87257  0.60299  1.0000
  I   I290      1.0  0.84432  0.50790  0.17398  1.0000
  I   I291      1.0  0.22313  0.88309  0.13799  1.0000
  I   I292      1.0  0.70093  0.46592  0.66519  1.0000
  I   I293      1.0  0.78320  0.71113  0.03880  1.0000
  I   I294      1.0  0.55964  0.23735  0.23222  1.0000
  I   I295      1.0  0.64234  0.86706  0.26382  1.0000
  I   I296      1.0  0.17617  0.68697  0.80239  1.0000
  I   I297      1.0  0.45782  0.26420  0.23800  1.0000
  I   I298      1.0  0.34931  0.53529  0.54523  1.0000
  I   I299      1.0  0.28486  0.64939  0.98897  1.0000
  I   I300      1.0  0.88760  0.26154  0.00747  1.0000
  I   I301      1.0  0.66465  0.61877  0.47645  1.0000
  I   I302      1.0  0.63868  0.77627  0.44766  1.0000
  I   I303      1.0  0.47994  0.75566  0.74773  1.0000
  I   I304      1.0  0.29001  0.24163  0.09531  1.0000
  I   I305      1.0  0.29645  0.63024  0.89252  1.0000
  I   I306      1.0  0.73031  0.17833  0.37600  1.0000
  I   I307      1.0  0.12784  0.74846  0.24279  1.0000
  I   I308      1.0  0.25408  0.77872  0.47422  1.0000
  I   I309      1.0  0.17127  0.60967  0.11788  1.0000
  I   I310      1.0  0.93042  0.04229  0.18351  1.0000
  I   I311      1.0  0.24111  0.03308  0.34695  1.0000
  I   I312      1.0  0.03813  0.97759  0.94010  1.0000
  I   I313      1.0  0.75193  0.40099  0.25257  1.0000
  I   I314      1.0  0.54612  0.43934  0.36203  1.0000
  I   I315      1.0  0.45371  0.10816  0.13477  1.0000
  I   I316      1.0  0.22467  0.12645  0.24150  1.0000
  I   I317      1.0  0.26666  0.07644  0.20482  1.0000
  I   I318      1.0  0.26308  0.76929  0.90638  1.0000
  I   I319      1.0  0.81497  0.75418  0.27477  1.0000
  I   I320      1.0  0.95597  0.43786  0.98616  1.0000
  I   I321      1.0  0.41401  0.82274  0.00380  1.0000
  I   I322      1.0  0.76565  0.51707  0.16627  1.0000
  I   I323      1.0  0.09996  0.52002  0.49350  1.0000
  I   I324      1.0  0.82267  0.15638  0.06527  1.0000
  I   I325      1.0  0.14058  0.08838  0.72424  1.0000
  I   I326      1.0  0.75697  0.20699  0.43337  1.0000
  I   I327      1.0  0.11981  0.21798  0.53395  1.0000
  I   I328      1.0  0.51598  0.76099  0.83050  1.0000
  I   I329      1.0  0.39516  0.40159  0.43788  1.0000
  I   I330      1.0  0.96733  0.62672  0.83556  1.0000
  I   I331      1.0  0.08702  0.26189  0.61671  1.0000
  I   I332      1.0  0.36851  0.55143  0.45772  1.0000
  I   I333      1.0  0.59951  0.40705  0.85595  1.0000
  I   I334      1.0  0.07054  0.97146  0.18015  1.0000
  I   I335      1.0  0.41742  0.05272  0.89278  1.0000
  I   I336      1.0  0.84203  0.40011  0.45589  1.0000
  I   I337      1.0  0.86876  0.81818  0.65830  1.0000
  I   I338      1.0  0.87970  0.53019  0.16381  1.0000
  I   I339      1.0  0.26227  0.89927  0.16221  1.0000
  I   I340      1.0  0.97356  0.45096  0.47837  1.0000
  I   I341      1.0  0.62783  0.47716  0.27773  1.0000
  I   I342      1.0  0.52402  0.21225  0.27038  1.0000
  I   I343      1.0  0.55825  0.86475  0.32794  1.0000
  I   I344      1.0  0.15968  0.74252  0.84640  1.0000
  I   I345      1.0  0.40572  0.28166  0.20223  1.0000
  I   I346      1.0  0.88400  0.63468  0.27579  1.0000
  I   I347      1.0  0.71440  0.84157  0.36041  1.0000
  I   I348      1.0  0.87567  0.31450  0.06250  1.0000
  I   I349      1.0  0.71154  0.62995  0.52547  1.0000
  I   I350      1.0  0.70766  0.76038  0.43630  1.0000
  I   I351      1.0  0.00162  0.41123  0.02867  1.0000
  I   I352      1.0  0.22314  0.25970  0.05655  1.0000
  I   I353      1.0  0.90641  0.69994  0.37406  1.0000
  I   I354      1.0  0.68318  0.23927  0.35317  1.0000
  I   I355      1.0  0.07282  0.76736  0.29028  1.0000
  I   I356      1.0  0.08432  0.78634  0.40755  1.0000
  I   I357      1.0  0.60223  0.92956  0.61478  1.0000
  I   I358      1.0  0.87507  0.02233  0.28230  1.0000
  I   I359      1.0  0.16236  0.07545  0.40911  1.0000
  I   I360      1.0  0.05567  0.97992  0.84085  1.0000
  I   I361      1.0  0.78340  0.34500  0.20013  1.0000
  I   I362      1.0  0.56434  0.38066  0.32260  1.0000
  I   I363      1.0  0.62305  0.81950  0.67135  1.0000
  I   I364      1.0  0.25477  0.91507  0.63437  1.0000
  I   I365      1.0  0.08076  0.73655  0.52623  1.0000
  I   I366      1.0  0.28581  0.73282  0.97278  1.0000
  I   I367      1.0  0.86133  0.77497  0.22946  1.0000
  I   I368      1.0  0.99945  0.45742  0.58521  1.0000
  I   I369      1.0  0.34049  0.93210  0.95672  1.0000
  I   I370      1.0  0.80773  0.50683  0.09654  1.0000
  I   I371      1.0  0.14391  0.49064  0.41651  1.0000
  I   I372      1.0  0.85763  0.12316  0.93911  1.0000
  I   I373      1.0  0.11297  0.18794  0.79354  1.0000
  I   I374      1.0  0.58769  0.92593  0.88196  1.0000
  I   I375      1.0  0.15307  0.21316  0.61839  1.0000
  I   I376      1.0  0.77837  0.45253  0.53603  1.0000
  I   I377      1.0  0.33919  0.46638  0.39034  1.0000
  I   I378      1.0  0.98992  0.69977  0.75513  1.0000
  I   I379      1.0  0.27564  0.45988  0.40992  1.0000
  I   I380      1.0  0.50577  0.68481  0.43220  1.0000
  I   I381      1.0  0.99274  0.21463  0.01665  1.0000
  I   I382      1.0  0.02357  0.90713  0.26903  1.0000
  I   I383      1.0  0.37112  0.40096  0.10067  1.0000
  I   I384      1.0  0.04076  0.05442  0.84868  1.0000
