data_image0
_chemical_formula_structural       Ti96I384
_chemical_formula_sum              "Ti96 I384"
_cell_length_a       40.1251
_cell_length_b       39.5449
_cell_length_c       22.2637
_cell_angle_alpha    88.7757
_cell_angle_beta     88.7757
_cell_angle_gamma    62.1586

_space_group_name_H-M_alt    "P 1"
_space_group_IT_number       1

loop_
  _space_group_symop_operation_xyz
  'x, y, z'

loop_
  _atom_site_type_symbol
  _atom_site_label
  _atom_site_symmetry_multiplicity
  _atom_site_fract_x
  _atom_site_fract_y
  _atom_site_fract_z
  _atom_site_occupancy
  Ti  Ti1       1.0  0.16051  0.09553  0.14520  1.0000
  Ti  Ti2       1.0  0.16781  0.09127  0.47935  1.0000
  Ti  Ti3       1.0  0.15569  0.09259  0.80805  1.0000
  Ti  Ti4       1.0  0.18315  0.31771  0.32645  1.0000
  Ti  Ti5       1.0  0.17774  0.30818  0.63706  1.0000
  Ti  Ti6       1.0  0.17475  0.32963  0.98771  1.0000
  Ti  Ti7       1.0  0.12670  0.61785  0.36997  1.0000
  Ti  Ti8       1.0  0.15553  0.61194  0.71618  1.0000
  Ti  Ti9       1.0  0.12954  0.61699  0.04168  1.0000
  Ti  Ti10      1.0  0.13796  0.87941  0.28144  1.0000
  Ti  Ti11      1.0  0.14371  0.88986  0.60990  1.0000
  Ti  Ti12      1.0  0.13745  0.86015  0.92784  1.0000
  Ti  Ti13      1.0  0.44874  0.06604  0.25302  1.0000
  Ti  Ti14      1.0  0.43997  0.06936  0.58499  1.0000
  Ti  Ti15      1.0  0.44356  0.07211  0.92393  1.0000
  Ti  Ti16      1.0  0.38791  0.37656  0.35569  1.0000
  Ti  Ti17      1.0  0.38514  0.38318  0.69577  1.0000
  Ti  Ti18      1.0  0.40070  0.37230  0.03371  1.0000
  Ti  Ti19      1.0  0.35576  0.62448  0.25953  1.0000
  Ti  Ti20      1.0  0.37758  0.61616  0.61507  1.0000
  Ti  Ti21      1.0  0.36385  0.66489  0.94845  1.0000
  Ti  Ti22      1.0  0.43444  0.82086  0.08268  1.0000
  Ti  Ti23      1.0  0.40886  0.82861  0.41351  1.0000
  Ti  Ti24      1.0  0.44530  0.81265  0.74515  1.0000
  Ti  Ti25      1.0  0.64828  0.13237  0.29298  1.0000
  Ti  Ti26      1.0  0.64452  0.12319  0.60970  1.0000
  Ti  Ti27      1.0  0.64857  0.11504  0.95035  1.0000
  Ti  Ti28      1.0  0.62534  0.37176  0.26012  1.0000
  Ti  Ti29      1.0  0.63375  0.38128  0.59214  1.0000
  Ti  Ti30      1.0  0.63667  0.37992  0.91647  1.0000
  Ti  Ti31      1.0  0.68851  0.57955  0.11611  1.0000
  Ti  Ti32      1.0  0.69051  0.56579  0.46117  1.0000
  Ti  Ti33      1.0  0.68781  0.56047  0.79518  1.0000
  Ti  Ti34      1.0  0.68394  0.83129  0.25289  1.0000
  Ti  Ti35      1.0  0.67024  0.82113  0.58167  1.0000
  Ti  Ti36      1.0  0.66923  0.80934  0.91120  1.0000
  Ti  Ti37      1.0  0.88980  0.11144  0.20628  1.0000
  Ti  Ti38      1.0  0.86801  0.10987  0.53593  1.0000
  Ti  Ti39      1.0  0.85882  0.12123  0.86779  1.0000
  Ti  Ti40      1.0  0.91454  0.32524  0.14583  1.0000
  Ti  Ti41      1.0  0.91300  0.32940  0.47603  1.0000
  Ti  Ti42      1.0  0.92199  0.31865  0.79997  1.0000
  Ti  Ti43      1.0  0.94011  0.53932  0.28214  1.0000
  Ti  Ti44      1.0  0.93949  0.54854  0.60311  1.0000
  Ti  Ti45      1.0  0.95269  0.54859  0.95636  1.0000
  Ti  Ti46      1.0  0.87804  0.84893  0.34355  1.0000
  Ti  Ti47      1.0  0.87943  0.84994  0.68462  1.0000
  Ti  Ti48      1.0  0.88230  0.86514  0.01042  1.0000
  Ti  Ti49      1.0  0.09300  0.14793  0.97631  1.0000
  Ti  Ti50      1.0  0.10324  0.16452  0.31259  1.0000
  Ti  Ti51      1.0  0.08923  0.13808  0.62809  1.0000
  Ti  Ti52      1.0  0.11152  0.36315  0.16298  1.0000
  Ti  Ti53      1.0  0.09940  0.35420  0.49038  1.0000
  Ti  Ti54      1.0  0.11449  0.34498  0.81740  1.0000
  Ti  Ti55      1.0  0.06161  0.66828  0.20710  1.0000
  Ti  Ti56      1.0  0.09338  0.68390  0.55200  1.0000
  Ti  Ti57      1.0  0.07281  0.66111  0.86925  1.0000
  Ti  Ti58      1.0  0.07590  0.90394  0.10683  1.0000
  Ti  Ti59      1.0  0.07389  0.92375  0.44434  1.0000
  Ti  Ti60      1.0  0.07623  0.92064  0.78336  1.0000
  Ti  Ti61      1.0  0.39140  0.12683  0.09944  1.0000
  Ti  Ti62      1.0  0.37008  0.12602  0.42081  1.0000
  Ti  Ti63      1.0  0.37579  0.12490  0.76508  1.0000
  Ti  Ti64      1.0  0.31876  0.42948  0.20165  1.0000
  Ti  Ti65      1.0  0.32172  0.42238  0.52081  1.0000
  Ti  Ti66      1.0  0.33904  0.43961  0.86598  1.0000
  Ti  Ti67      1.0  0.28736  0.71178  0.13397  1.0000
  Ti  Ti68      1.0  0.31425  0.67185  0.45905  1.0000
  Ti  Ti69      1.0  0.31629  0.69540  0.77127  1.0000
  Ti  Ti70      1.0  0.39738  0.89213  0.90556  1.0000
  Ti  Ti71      1.0  0.32880  0.91575  0.29050  1.0000
  Ti  Ti72      1.0  0.38273  0.89238  0.59156  1.0000
  Ti  Ti73      1.0  0.59196  0.18558  0.10463  1.0000
  Ti  Ti74      1.0  0.57301  0.20171  0.46019  1.0000
  Ti  Ti75      1.0  0.59853  0.17973  0.78784  1.0000
  Ti  Ti76      1.0  0.56630  0.41793  0.08077  1.0000
  Ti  Ti77      1.0  0.57096  0.44749  0.43089  1.0000
  Ti  Ti78      1.0  0.56887  0.43599  0.75350  1.0000
  Ti  Ti79      1.0  0.61355  0.62298  0.94694  1.0000
  Ti  Ti80      1.0  0.62304  0.61760  0.31006  1.0000
  Ti  Ti81      1.0  0.63463  0.62132  0.62082  1.0000
  Ti  Ti82      1.0  0.61983  0.87780  0.08500  1.0000
  Ti  Ti83      1.0  0.61910  0.89617  0.42383  1.0000
  Ti  Ti84      1.0  0.61682  0.88539  0.74847  1.0000
  Ti  Ti85      1.0  0.80862  0.17481  0.05274  1.0000
  Ti  Ti86      1.0  0.82428  0.18127  0.36093  1.0000
  Ti  Ti87      1.0  0.81094  0.18172  0.69351  1.0000
  Ti  Ti88      1.0  0.84561  0.37393  0.97268  1.0000
  Ti  Ti89      1.0  0.85124  0.39642  0.31163  1.0000
  Ti  Ti90      1.0  0.85469  0.38422  0.64464  1.0000
  Ti  Ti91      1.0  0.88194  0.60159  0.12050  1.0000
  Ti  Ti92      1.0  0.87030  0.60727  0.43369  1.0000
  Ti  Ti93      1.0  0.88304  0.60650  0.78557  1.0000
  Ti  Ti94      1.0  0.82361  0.92240  0.17505  1.0000
  Ti  Ti95      1.0  0.81875  0.90963  0.52233  1.0000
  Ti  Ti96      1.0  0.81226  0.91693  0.83755  1.0000
  I   I1        1.0  0.09521  0.12847  0.21721  1.0000
  I   I2        1.0  0.09166  0.10142  0.52320  1.0000
  I   I3        1.0  0.09452  0.09621  0.89082  1.0000
  I   I4        1.0  0.11167  0.31994  0.38225  1.0000
  I   I5        1.0  0.12050  0.30658  0.71791  1.0000
  I   I6        1.0  0.10338  0.33925  0.03983  1.0000
  I   I7        1.0  0.05943  0.65652  0.46941  1.0000
  I   I8        1.0  0.08241  0.62195  0.76504  1.0000
  I   I9        1.0  0.05332  0.63938  0.09904  1.0000
  I   I10       1.0  0.08099  0.87132  0.36479  1.0000
  I   I11       1.0  0.07859  0.89715  0.66260  1.0000
  I   I12       1.0  0.06490  0.87259  0.99614  1.0000
  I   I13       1.0  0.37388  0.09415  0.30985  1.0000
  I   I14       1.0  0.35678  0.11374  0.65030  1.0000
  I   I15       1.0  0.37384  0.10056  0.98957  1.0000
  I   I16       1.0  0.32142  0.38103  0.42198  1.0000
  I   I17       1.0  0.31498  0.40713  0.75993  1.0000
  I   I18       1.0  0.32472  0.39491  0.09318  1.0000
  I   I19       1.0  0.29774  0.64036  0.35058  1.0000
  I   I20       1.0  0.30396  0.66073  0.68573  1.0000
  I   I21       1.0  0.27327  0.69889  0.02582  1.0000
  I   I22       1.0  0.29906  0.90042  0.19336  1.0000
  I   I23       1.0  0.34515  0.87986  0.50432  1.0000
  I   I24       1.0  0.36517  0.87840  0.81206  1.0000
  I   I25       1.0  0.57622  0.15262  0.34850  1.0000
  I   I26       1.0  0.58499  0.14310  0.69327  1.0000
  I   I27       1.0  0.57870  0.14442  0.01212  1.0000
  I   I28       1.0  0.55116  0.41497  0.32078  1.0000
  I   I29       1.0  0.56048  0.39381  0.66048  1.0000
  I   I30       1.0  0.57334  0.37690  0.98366  1.0000
  I   I31       1.0  0.62153  0.57528  0.21634  1.0000
  I   I32       1.0  0.62653  0.57815  0.52861  1.0000
  I   I33       1.0  0.60720  0.60535  0.82951  1.0000
  I   I34       1.0  0.61228  0.85873  0.31324  1.0000
  I   I35       1.0  0.58944  0.86657  0.64418  1.0000
  I   I36       1.0  0.60220  0.84659  0.99648  1.0000
  I   I37       1.0  0.81426  0.14650  0.25474  1.0000
  I   I38       1.0  0.79546  0.15980  0.58457  1.0000
  I   I39       1.0  0.79023  0.14937  0.95351  1.0000
  I   I40       1.0  0.83947  0.35569  0.21427  1.0000
  I   I41       1.0  0.84141  0.34341  0.54612  1.0000
  I   I42       1.0  0.84613  0.34260  0.86326  1.0000
  I   I43       1.0  0.86248  0.57545  0.32824  1.0000
  I   I44       1.0  0.86997  0.57025  0.67881  1.0000
  I   I45       1.0  0.87867  0.57031  0.01934  1.0000
  I   I46       1.0  0.80449  0.89465  0.40475  1.0000
  I   I47       1.0  0.79935  0.88424  0.73650  1.0000
  I   I48       1.0  0.80833  0.90090  0.06695  1.0000
  I   I49       1.0  0.12662  0.16769  0.06938  1.0000
  I   I50       1.0  0.13709  0.17335  0.41220  1.0000
  I   I51       1.0  0.10264  0.16732  0.74592  1.0000
  I   I52       1.0  0.12194  0.39901  0.26022  1.0000
  I   I53       1.0  0.12033  0.37799  0.59162  1.0000
  I   I54       1.0  0.12536  0.38769  0.90910  1.0000
  I   I55       1.0  0.08456  0.69393  0.32577  1.0000
  I   I56       1.0  0.12754  0.68481  0.66441  1.0000
  I   I57       1.0  0.08936  0.68330  0.97684  1.0000
  I   I58       1.0  0.08197  0.94355  0.20173  1.0000
  I   I59       1.0  0.09051  0.96247  0.55387  1.0000
  I   I60       1.0  0.09036  0.93958  0.89632  1.0000
  I   I61       1.0  0.41585  0.14347  0.20190  1.0000
  I   I62       1.0  0.40682  0.13706  0.51696  1.0000
  I   I63       1.0  0.41229  0.13937  0.86610  1.0000
  I   I64       1.0  0.34461  0.45021  0.30641  1.0000
  I   I65       1.0  0.34444  0.44653  0.62318  1.0000
  I   I66       1.0  0.36863  0.44676  0.96265  1.0000
  I   I67       1.0  0.32386  0.70929  0.24462  1.0000
  I   I68       1.0  0.36334  0.68350  0.54858  1.0000
  I   I69       1.0  0.32656  0.73043  0.87070  1.0000
  I   I70       1.0  0.45265  0.86867  0.00496  1.0000
  I   I71       1.0  0.40010  0.89756  0.35473  1.0000
  I   I72       1.0  0.43176  0.88269  0.68658  1.0000
  I   I73       1.0  0.60580  0.21336  0.21702  1.0000
  I   I74       1.0  0.61083  0.20499  0.56417  1.0000
  I   I75       1.0  0.63245  0.19100  0.87930  1.0000
  I   I76       1.0  0.59471  0.44082  0.17661  1.0000
  I   I77       1.0  0.59420  0.45788  0.54525  1.0000
  I   I78       1.0  0.59662  0.45614  0.86720  1.0000
  I   I79       1.0  0.63712  0.64314  0.05573  1.0000
  I   I80       1.0  0.65860  0.63795  0.39152  1.0000
  I   I81       1.0  0.65917  0.64150  0.72379  1.0000
  I   I82       1.0  0.64624  0.90257  0.18976  1.0000
  I   I83       1.0  0.65632  0.89283  0.52687  1.0000
  I   I84       1.0  0.66665  0.87333  0.85149  1.0000
  I   I85       1.0  0.85255  0.19059  0.13231  1.0000
  I   I86       1.0  0.84057  0.19636  0.46716  1.0000
  I   I87       1.0  0.83723  0.19538  0.80555  1.0000
  I   I88       1.0  0.88738  0.39109  0.06342  1.0000
  I   I89       1.0  0.87691  0.40559  0.41601  1.0000
  I   I90       1.0  0.88887  0.39551  0.73461  1.0000
  I   I91       1.0  0.91128  0.61938  0.22227  1.0000
  I   I92       1.0  0.90352  0.61655  0.53946  1.0000
  I   I93       1.0  0.91210  0.62708  0.87499  1.0000
  I   I94       1.0  0.85984  0.92283  0.28763  1.0000
  I   I95       1.0  0.86515  0.92118  0.60548  1.0000
  I   I96       1.0  0.84624  0.93647  0.94573  1.0000
  I   I97       1.0  0.15096  0.14151  0.89711  1.0000
  I   I98       1.0  0.16802  0.14202  0.22783  1.0000
  I   I99       1.0  0.16623  0.12410  0.58375  1.0000
  I   I100      1.0  0.17851  0.36198  0.10085  1.0000
  I   I101      1.0  0.16376  0.36716  0.42889  1.0000
  I   I102      1.0  0.16525  0.36176  0.73133  1.0000
  I   I103      1.0  0.13150  0.65605  0.15891  1.0000
  I   I104      1.0  0.15518  0.64611  0.46142  1.0000
  I   I105      1.0  0.14273  0.65862  0.81875  1.0000
  I   I106      1.0  0.13844  0.89541  0.04281  1.0000
  I   I107      1.0  0.13374  0.93003  0.36998  1.0000
  I   I108      1.0  0.14300  0.92524  0.72794  1.0000
  I   I109      1.0  0.45848  0.10169  0.03043  1.0000
  I   I110      1.0  0.44743  0.10786  0.35376  1.0000
  I   I111      1.0  0.44188  0.10505  0.68666  1.0000
  I   I112      1.0  0.39129  0.41349  0.13879  1.0000
  I   I113      1.0  0.39704  0.40252  0.47867  1.0000
  I   I114      1.0  0.40196  0.41846  0.77735  1.0000
  I   I115      1.0  0.36500  0.70738  0.03818  1.0000
  I   I116      1.0  0.38018  0.64384  0.38009  1.0000
  I   I117      1.0  0.38860  0.65710  0.71451  1.0000
  I   I118      1.0  0.46729  0.83501  0.84418  1.0000
  I   I119      1.0  0.45422  0.85021  0.17403  1.0000
  I   I120      1.0  0.45058  0.83328  0.50383  1.0000
  I   I121      1.0  0.66573  0.15017  0.04441  1.0000
  I   I122      1.0  0.64173  0.17973  0.38781  1.0000
  I   I123      1.0  0.67287  0.13765  0.71258  1.0000
  I   I124      1.0  0.63725  0.41917  0.02349  1.0000
  I   I125      1.0  0.63638  0.41285  0.35903  1.0000
  I   I126      1.0  0.63863  0.42183  0.69305  1.0000
  I   I127      1.0  0.68726  0.60202  0.89255  1.0000
  I   I128      1.0  0.68083  0.62205  0.20981  1.0000
  I   I129      1.0  0.70223  0.60517  0.55941  1.0000
  I   I130      1.0  0.68517  0.84707  0.01355  1.0000
  I   I131      1.0  0.69304  0.87080  0.37311  1.0000
  I   I132      1.0  0.68837  0.84434  0.68447  1.0000
  I   I133      1.0  0.87994  0.14466  0.96487  1.0000
  I   I134      1.0  0.90099  0.12944  0.31866  1.0000
  I   I135      1.0  0.88214  0.13147  0.65623  1.0000
  I   I136      1.0  0.91646  0.35782  0.90745  1.0000
  I   I137      1.0  0.92451  0.36708  0.24732  1.0000
  I   I138      1.0  0.92201  0.36938  0.57141  1.0000
  I   I139      1.0  0.96006  0.57934  0.06159  1.0000
  I   I140      1.0  0.94784  0.56481  0.39215  1.0000
  I   I141      1.0  0.94085  0.59177  0.69498  1.0000
  I   I142      1.0  0.89588  0.88458  0.12472  1.0000
  I   I143      1.0  0.89089  0.87160  0.45177  1.0000
  I   I144      1.0  0.88766  0.88989  0.77705  1.0000
  I   I145      1.0  0.13661  0.06829  0.04081  1.0000
  I   I146      1.0  0.13787  0.08783  0.37341  1.0000
  I   I147      1.0  0.12975  0.07085  0.70371  1.0000
  I   I148      1.0  0.17529  0.28940  0.22721  1.0000
  I   I149      1.0  0.16114  0.27808  0.54537  1.0000
  I   I150      1.0  0.17671  0.28744  0.87294  1.0000
  I   I151      1.0  0.09171  0.59797  0.28226  1.0000
  I   I152      1.0  0.12943  0.60440  0.58992  1.0000
  I   I153      1.0  0.11453  0.57919  0.94845  1.0000
  I   I154      1.0  0.12671  0.84157  0.19038  1.0000
  I   I155      1.0  0.13198  0.85885  0.50499  1.0000
  I   I156      1.0  0.11758  0.84290  0.82641  1.0000
  I   I157      1.0  0.41151  0.05342  0.14278  1.0000
  I   I158      1.0  0.40946  0.04924  0.47937  1.0000
  I   I159      1.0  0.43184  0.05136  0.80676  1.0000
  I   I160      1.0  0.36216  0.35422  0.26414  1.0000
  I   I161      1.0  0.35932  0.35061  0.59557  1.0000
  I   I162      1.0  0.38284  0.35958  0.91645  1.0000
  I   I163      1.0  0.31583  0.62969  0.16559  1.0000
  I   I164      1.0  0.34735  0.59829  0.51945  1.0000
  I   I165      1.0  0.34019  0.63610  0.85261  1.0000
  I   I166      1.0  0.40278  0.82167  0.96531  1.0000
  I   I167      1.0  0.34149  0.84270  0.33897  1.0000
  I   I168      1.0  0.39313  0.81940  0.65515  1.0000
  I   I169      1.0  0.62318  0.12035  0.18546  1.0000
  I   I170      1.0  0.59585  0.13040  0.52415  1.0000
  I   I171      1.0  0.62480  0.09864  0.84733  1.0000
  I   I172      1.0  0.60334  0.34932  0.15441  1.0000
  I   I173      1.0  0.60373  0.37315  0.48755  1.0000
  I   I174      1.0  0.61419  0.36549  0.81508  1.0000
  I   I175      1.0  0.65839  0.55103  0.03270  1.0000
  I   I176      1.0  0.66964  0.54483  0.36301  1.0000
  I   I177      1.0  0.66945  0.54189  0.69193  1.0000
  I   I178      1.0  0.66298  0.80691  0.15740  1.0000
  I   I179      1.0  0.63267  0.81649  0.48196  1.0000
  I   I180      1.0  0.63666  0.80809  0.81468  1.0000
  I   I181      1.0  0.85136  0.09783  0.10927  1.0000
  I   I182      1.0  0.84209  0.10455  0.43325  1.0000
  I   I183      1.0  0.82113  0.11070  0.77101  1.0000
  I   I184      1.0  0.89865  0.29792  0.03880  1.0000
  I   I185      1.0  0.87905  0.32559  0.38165  1.0000
  I   I186      1.0  0.89582  0.30246  0.70038  1.0000
  I   I187      1.0  0.92371  0.52261  0.17310  1.0000
  I   I188      1.0  0.89795  0.53482  0.51445  1.0000
  I   I189      1.0  0.90908  0.54037  0.86400  1.0000
  I   I190      1.0  0.83837  0.84854  0.23990  1.0000
  I   I191      1.0  0.84561  0.84394  0.58598  1.0000
  I   I192      1.0  0.85777  0.84481  0.89537  1.0000
  I   I193      1.0  0.22480  0.07676  0.08281  1.0000
  I   I194      1.0  0.23637  0.07636  0.45695  1.0000
  I   I195      1.0  0.20769  0.10026  0.75513  1.0000
  I   I196      1.0  0.23565  0.33437  0.29200  1.0000
  I   I197      1.0  0.22507  0.32688  0.58473  1.0000
  I   I198      1.0  0.23431  0.33545  0.93575  1.0000
  I   I199      1.0  0.19202  0.59145  0.31511  1.0000
  I   I200      1.0  0.22392  0.58889  0.68364  1.0000
  I   I201      1.0  0.19720  0.60204  0.00350  1.0000
  I   I202      1.0  0.20197  0.87733  0.23806  1.0000
  I   I203      1.0  0.20068  0.90016  0.56484  1.0000
  I   I204      1.0  0.20514  0.84663  0.88375  1.0000
  I   I205      1.0  0.51274  0.05254  0.20705  1.0000
  I   I206      1.0  0.50935  0.05269  0.55164  1.0000
  I   I207      1.0  0.50799  0.06849  0.88619  1.0000
  I   I208      1.0  0.45092  0.36430  0.30555  1.0000
  I   I209      1.0  0.44977  0.35838  0.63035  1.0000
  I   I210      1.0  0.46919  0.35892  0.00156  1.0000
  I   I211      1.0  0.41344  0.62822  0.20237  1.0000
  I   I212      1.0  0.44104  0.58892  0.55595  1.0000
  I   I213      1.0  0.43425  0.63858  0.90910  1.0000
  I   I214      1.0  0.49327  0.75119  0.06387  1.0000
  I   I215      1.0  0.46081  0.79305  0.33209  1.0000
  I   I216      1.0  0.50200  0.78196  0.67446  1.0000
  I   I217      1.0  0.70787  0.13588  0.25910  1.0000
  I   I218      1.0  0.70366  0.11696  0.54656  1.0000
  I   I219      1.0  0.71887  0.09027  0.90279  1.0000
  I   I220      1.0  0.69178  0.35240  0.21756  1.0000
  I   I221      1.0  0.69452  0.37920  0.54563  1.0000
  I   I222      1.0  0.70119  0.37219  0.87089  1.0000
  I   I223      1.0  0.74857  0.57435  0.05361  1.0000
  I   I224      1.0  0.75926  0.55751  0.42116  1.0000
  I   I225      1.0  0.75523  0.54384  0.76574  1.0000
  I   I226      1.0  0.74787  0.82630  0.20747  1.0000
  I   I227      1.0  0.73758  0.78452  0.53586  1.0000
  I   I228      1.0  0.73582  0.77240  0.85808  1.0000
  I   I229      1.0  0.94786  0.11164  0.14693  1.0000
  I   I230      1.0  0.93507  0.09623  0.50447  1.0000
  I   I231      1.0  0.92135  0.09529  0.80752  1.0000
  I   I232      1.0  0.98352  0.31719  0.11272  1.0000
  I   I233      1.0  0.97672  0.32120  0.41535  1.0000
  I   I234      1.0  0.98672  0.30769  0.76348  1.0000
  I   I235      1.0  0.00666  0.53575  0.24745  1.0000
  I   I236      1.0  0.00014  0.54362  0.54890  1.0000
  I   I237      1.0  0.01286  0.54368  0.90204  1.0000
  I   I238      1.0  0.94925  0.81727  0.31683  1.0000
  I   I239      1.0  0.95035  0.82698  0.64724  1.0000
  I   I240      1.0  0.94093  0.86277  0.96418  1.0000
  I   I241      1.0  0.19642  0.02743  0.19316  1.0000
  I   I242      1.0  0.18942  0.01848  0.51390  1.0000
  I   I243      1.0  0.19445  0.02331  0.84738  1.0000
  I   I244      1.0  0.22181  0.24761  0.37582  1.0000
  I   I245      1.0  0.23381  0.25342  0.69508  1.0000
  I   I246      1.0  0.21833  0.26410  0.03165  1.0000
  I   I247      1.0  0.13816  0.55563  0.43144  1.0000
  I   I248      1.0  0.17168  0.54510  0.76096  1.0000
  I   I249      1.0  0.15599  0.55889  0.11504  1.0000
  I   I250      1.0  0.18566  0.81667  0.33959  1.0000
  I   I251      1.0  0.18862  0.81772  0.63786  1.0000
  I   I252      1.0  0.16100  0.79514  0.98616  1.0000
  I   I253      1.0  0.47272  0.99521  0.29274  1.0000
  I   I254      1.0  0.45509  0.00327  0.62070  1.0000
  I   I255      1.0  0.46455  0.00110  0.96560  1.0000
  I   I256      1.0  0.42129  0.30926  0.41162  1.0000
  I   I257      1.0  0.41072  0.31428  0.75249  1.0000
  I   I258      1.0  0.42788  0.30724  0.09176  1.0000
  I   I259      1.0  0.39272  0.55677  0.30507  1.0000
  I   I260      1.0  0.38407  0.55371  0.67800  1.0000
  I   I261      1.0  0.37571  0.60176  0.01019  1.0000
  I   I262      1.0  0.39604  0.79283  0.13713  1.0000
  I   I263      1.0  0.40032  0.77253  0.45950  1.0000
  I   I264      1.0  0.45089  0.75164  0.80164  1.0000
  I   I265      1.0  0.68049  0.06694  0.35061  1.0000
  I   I266      1.0  0.67048  0.05222  0.63383  1.0000
  I   I267      1.0  0.67550  0.05319  0.01069  1.0000
  I   I268      1.0  0.64179  0.30724  0.31851  1.0000
  I   I269      1.0  0.65454  0.30802  0.62249  1.0000
  I   I270      1.0  0.67475  0.30481  0.93964  1.0000
  I   I271      1.0  0.73068  0.51329  0.17359  1.0000
  I   I272      1.0  0.72732  0.49713  0.50403  1.0000
  I   I273      1.0  0.70231  0.50206  0.86607  1.0000
  I   I274      1.0  0.71343  0.76370  0.30336  1.0000
  I   I275      1.0  0.66862  0.76129  0.63291  1.0000
  I   I276      1.0  0.67636  0.74723  0.97012  1.0000
  I   I277      1.0  0.91213  0.04185  0.24507  1.0000
  I   I278      1.0  0.87873  0.04538  0.57921  1.0000
  I   I279      1.0  0.87433  0.05745  0.92807  1.0000
  I   I280      1.0  0.93414  0.26101  0.20591  1.0000
  I   I281      1.0  0.94354  0.26295  0.52673  1.0000
  I   I282      1.0  0.93798  0.24772  0.83190  1.0000
  I   I283      1.0  0.96676  0.46725  0.31962  1.0000
  I   I284      1.0  0.97439  0.48270  0.64383  1.0000
  I   I285      1.0  0.97597  0.48172  0.99756  1.0000
  I   I286      1.0  0.88123  0.78399  0.38553  1.0000
  I   I287      1.0  0.89539  0.78527  0.73558  1.0000
  I   I288      1.0  0.90601  0.79446  0.04248  1.0000
  I   I289      1.0  0.03716  0.14339  0.03765  1.0000
  I   I290      1.0  0.03868  0.17216  0.35362  1.0000
  I   I291      1.0  0.02666  0.14311  0.67137  1.0000
  I   I292      1.0  0.06676  0.33571  0.20038  1.0000
  I   I293      1.0  0.05782  0.32089  0.52840  1.0000
  I   I294      1.0  0.06734  0.32911  0.87609  1.0000
  I   I295      1.0  0.99510  0.68490  0.25042  1.0000
  I   I296      1.0  0.02973  0.71366  0.61202  1.0000
  I   I297      1.0  0.01084  0.66029  0.90705  1.0000
  I   I298      1.0  0.01702  0.88923  0.13969  1.0000
  I   I299      1.0  0.02246  0.91820  0.50210  1.0000
  I   I300      1.0  0.01384  0.92091  0.81469  1.0000
  I   I301      1.0  0.31935  0.14312  0.12191  1.0000
  I   I302      1.0  0.31074  0.12327  0.45489  1.0000
  I   I303      1.0  0.32121  0.11958  0.81356  1.0000
  I   I304      1.0  0.25428  0.43272  0.23360  1.0000
  I   I305      1.0  0.26004  0.42096  0.55569  1.0000
  I   I306      1.0  0.27706  0.44617  0.91786  1.0000
  I   I307      1.0  0.22622  0.72400  0.20254  1.0000
  I   I308      1.0  0.25455  0.68593  0.53161  1.0000
  I   I309      1.0  0.24292  0.73209  0.81534  1.0000
  I   I310      1.0  0.32904  0.93369  0.95461  1.0000
  I   I311      1.0  0.26821  0.95478  0.34850  1.0000
  I   I312      1.0  0.31878  0.93143  0.65013  1.0000
  I   I313      1.0  0.52512  0.19612  0.13644  1.0000
  I   I314      1.0  0.50667  0.22771  0.50999  1.0000
  I   I315      1.0  0.53649  0.18853  0.83690  1.0000
  I   I316      1.0  0.50051  0.43372  0.13476  1.0000
  I   I317      1.0  0.50189  0.46703  0.45857  1.0000
  I   I318      1.0  0.50799  0.44019  0.80873  1.0000
  I   I319      1.0  0.55371  0.60836  0.96290  1.0000
  I   I320      1.0  0.56453  0.61543  0.36514  1.0000
  I   I321      1.0  0.57233  0.63020  0.67252  1.0000
  I   I322      1.0  0.55040  0.90985  0.12575  1.0000
  I   I323      1.0  0.55185  0.91327  0.46427  1.0000
  I   I324      1.0  0.55419  0.90864  0.80541  1.0000
  I   I325      1.0  0.74192  0.19200  0.09445  1.0000
  I   I326      1.0  0.75259  0.20647  0.38643  1.0000
  I   I327      1.0  0.74425  0.21008  0.73856  1.0000
  I   I328      1.0  0.78697  0.37478  0.02617  1.0000
  I   I329      1.0  0.78406  0.42171  0.36503  1.0000
  I   I330      1.0  0.79255  0.39362  0.70120  1.0000
  I   I331      1.0  0.82013  0.60942  0.16488  1.0000
  I   I332      1.0  0.80449  0.62803  0.48264  1.0000
  I   I333      1.0  0.81604  0.62248  0.84305  1.0000
  I   I334      1.0  0.75261  0.94667  0.21305  1.0000
  I   I335      1.0  0.75407  0.93582  0.57314  1.0000
  I   I336      1.0  0.74926  0.93538  0.89346  1.0000
  I   I337      1.0  0.04697  0.21669  0.94564  1.0000
  I   I338      1.0  0.07690  0.23305  0.27227  1.0000
  I   I339      1.0  0.05427  0.20420  0.58687  1.0000
  I   I340      1.0  0.06193  0.43035  0.13314  1.0000
  I   I341      1.0  0.05149  0.42059  0.44440  1.0000
  I   I342      1.0  0.06324  0.41107  0.76707  1.0000
  I   I343      1.0  0.04113  0.74015  0.16696  1.0000
  I   I344      1.0  0.08192  0.75036  0.50887  1.0000
  I   I345      1.0  0.04383  0.73486  0.83497  1.0000
  I   I346      1.0  0.02519  0.97356  0.07031  1.0000
  I   I347      1.0  0.03076  0.99092  0.39269  1.0000
  I   I348      1.0  0.04777  0.99027  0.73449  1.0000
  I   I349      1.0  0.37986  0.19078  0.05290  1.0000
  I   I350      1.0  0.33677  0.19386  0.37336  1.0000
  I   I351      1.0  0.34740  0.19671  0.73858  1.0000
  I   I352      1.0  0.28844  0.50489  0.18320  1.0000
  I   I353      1.0  0.29458  0.49388  0.48398  1.0000
  I   I354      1.0  0.31192  0.51373  0.83042  1.0000
  I   I355      1.0  0.28084  0.78063  0.12230  1.0000
  I   I356      1.0  0.29624  0.74108  0.42938  1.0000
  I   I357      1.0  0.31770  0.74964  0.69313  1.0000
  I   I358      1.0  0.40551  0.94967  0.86237  1.0000
  I   I359      1.0  0.33231  0.97180  0.23577  1.0000
  I   I360      1.0  0.40774  0.93527  0.54460  1.0000
  I   I361      1.0  0.57269  0.24781  0.03964  1.0000
  I   I362      1.0  0.54885  0.27148  0.41706  1.0000
  I   I363      1.0  0.57937  0.24517  0.73075  1.0000
  I   I364      1.0  0.53211  0.48890  0.04445  1.0000
  I   I365      1.0  0.55914  0.51674  0.39516  1.0000
  I   I366      1.0  0.53352  0.50029  0.68868  1.0000
  I   I367      1.0  0.57433  0.69416  0.92869  1.0000
  I   I368      1.0  0.57976  0.68543  0.27633  1.0000
  I   I369      1.0  0.59675  0.69718  0.59319  1.0000
  I   I370      1.0  0.61016  0.94390  0.02804  1.0000
  I   I371      1.0  0.59698  0.95791  0.35595  1.0000
  I   I372      1.0  0.61544  0.95099  0.72103  1.0000
  I   I373      1.0  0.78905  0.24211  0.00402  1.0000
  I   I374      1.0  0.81937  0.24331  0.31166  1.0000
  I   I375      1.0  0.81654  0.24008  0.65105  1.0000
  I   I376      1.0  0.80961  0.44444  0.93195  1.0000
  I   I377      1.0  0.83961  0.46258  0.26078  1.0000
  I   I378      1.0  0.82356  0.45523  0.60239  1.0000
  I   I379      1.0  0.85149  0.67285  0.08593  1.0000
  I   I380      1.0  0.85227  0.67530  0.38794  1.0000
  I   I381      1.0  0.84601  0.67601  0.73717  1.0000
  I   I382      1.0  0.80712  0.98979  0.13410  1.0000
  I   I383      1.0  0.80185  0.98394  0.48373  1.0000
  I   I384      1.0  0.78939  0.98535  0.78687  1.0000
