data_image0
_chemical_formula_structural       Ti96I384
_chemical_formula_sum              "Ti96 I384"
_cell_length_a       64.5168
_cell_length_b       64.2854
_cell_length_c       31.4063
_cell_angle_alpha    88.7757
_cell_angle_beta     88.7757
_cell_angle_gamma    62.1586

_space_group_name_H-M_alt    "P 1"
_space_group_IT_number       1

loop_
  _space_group_symop_operation_xyz
  'x, y, z'

loop_
  _atom_site_type_symbol
  _atom_site_label
  _atom_site_symmetry_multiplicity
  _atom_site_fract_x
  _atom_site_fract_y
  _atom_site_fract_z
  _atom_site_occupancy
  Ti  Ti1       1.0  0.54557  0.87104  0.79056  1.0000
  Ti  Ti2       1.0  0.34537  0.16093  0.52602  1.0000
  Ti  Ti3       1.0  0.91418  0.67038  0.09602  1.0000
  Ti  Ti4       1.0  0.87678  0.15051  0.97471  1.0000
  Ti  Ti5       1.0  0.18756  0.81416  0.66412  1.0000
  Ti  Ti6       1.0  0.34642  0.23252  0.14989  1.0000
  Ti  Ti7       1.0  0.86719  0.95538  0.01914  1.0000
  Ti  Ti8       1.0  0.48256  0.27377  0.69941  1.0000
  Ti  Ti9       1.0  0.34151  0.83768  0.13433  1.0000
  Ti  Ti10      1.0  0.81933  0.72915  0.72940  1.0000
  Ti  Ti11      1.0  0.29170  0.41219  0.58562  1.0000
  Ti  Ti12      1.0  0.05396  0.63836  0.48557  1.0000
  Ti  Ti13      1.0  0.24277  0.29362  0.54357  1.0000
  Ti  Ti14      1.0  0.07834  0.00680  0.56620  1.0000
  Ti  Ti15      1.0  0.59726  0.14247  0.00789  1.0000
  Ti  Ti16      1.0  0.60215  0.99988  0.89216  1.0000
  Ti  Ti17      1.0  0.45634  0.17784  0.82996  1.0000
  Ti  Ti18      1.0  0.06632  0.65059  0.84544  1.0000
  Ti  Ti19      1.0  0.79112  0.81431  0.36936  1.0000
  Ti  Ti20      1.0  0.44295  0.07733  0.01881  1.0000
  Ti  Ti21      1.0  0.95614  0.12556  0.78469  1.0000
  Ti  Ti22      1.0  0.67180  0.39903  0.81322  1.0000
  Ti  Ti23      1.0  0.69154  0.97658  0.08062  1.0000
  Ti  Ti24      1.0  0.97998  0.79342  0.14956  1.0000
  Ti  Ti25      1.0  0.82882  0.59970  0.32437  1.0000
  Ti  Ti26      1.0  0.28554  0.03104  0.93406  1.0000
  Ti  Ti27      1.0  0.24322  0.60292  0.12129  1.0000
  Ti  Ti28      1.0  0.66046  0.38419  0.20473  1.0000
  Ti  Ti29      1.0  0.86330  0.91059  0.35317  1.0000
  Ti  Ti30      1.0  0.79293  0.39662  0.25765  1.0000
  Ti  Ti31      1.0  0.86037  0.30660  0.50291  1.0000
  Ti  Ti32      1.0  0.60709  0.19720  0.22230  1.0000
  Ti  Ti33      1.0  0.37691  0.91495  0.36982  1.0000
  Ti  Ti34      1.0  0.51735  0.63985  0.85445  1.0000
  Ti  Ti35      1.0  0.80797  0.45485  0.73581  1.0000
  Ti  Ti36      1.0  0.97022  0.58410  0.81319  1.0000
  Ti  Ti37      1.0  0.04859  0.28371  0.22685  1.0000
  Ti  Ti38      1.0  0.35592  0.43995  0.37883  1.0000
  Ti  Ti39      1.0  0.82175  0.15234  0.56418  1.0000
  Ti  Ti40      1.0  0.46165  0.89849  0.18720  1.0000
  Ti  Ti41      1.0  0.53309  0.69951  0.33561  1.0000
  Ti  Ti42      1.0  0.80584  0.22791  0.78358  1.0000
  Ti  Ti43      1.0  0.60915  0.09717  0.72845  1.0000
  Ti  Ti44      1.0  0.81803  0.49206  0.16664  1.0000
  Ti  Ti45      1.0  0.48078  0.55899  0.35539  1.0000
  Ti  Ti46      1.0  0.19724  0.40479  0.95482  1.0000
  Ti  Ti47      1.0  0.05244  0.40584  0.10528  1.0000
  Ti  Ti48      1.0  0.44859  0.66862  0.51546  1.0000
  Ti  Ti49      1.0  0.46916  0.90761  0.76767  1.0000
  Ti  Ti50      1.0  0.25233  0.13576  0.71866  1.0000
  Ti  Ti51      1.0  0.30690  0.12588  0.46116  1.0000
  Ti  Ti52      1.0  0.92798  0.07892  0.94713  1.0000
  Ti  Ti53      1.0  0.26398  0.66834  0.54084  1.0000
  Ti  Ti54      1.0  0.36937  0.18931  0.06851  1.0000
  Ti  Ti55      1.0  0.91271  0.93088  0.92748  1.0000
  Ti  Ti56      1.0  0.46534  0.29588  0.57848  1.0000
  Ti  Ti57      1.0  0.28412  0.84490  0.13295  1.0000
  Ti  Ti58      1.0  0.62505  0.11065  0.60209  1.0000
  Ti  Ti59      1.0  0.84073  0.74068  0.86003  1.0000
  Ti  Ti60      1.0  0.07150  0.66995  0.40403  1.0000
  Ti  Ti61      1.0  0.55770  0.19010  0.98088  1.0000
  Ti  Ti62      1.0  0.23283  0.35241  0.50701  1.0000
  Ti  Ti63      1.0  0.10285  0.94980  0.59459  1.0000
  Ti  Ti64      1.0  0.10270  0.67294  0.91511  1.0000
  Ti  Ti65      1.0  0.10378  0.52156  0.82105  1.0000
  Ti  Ti66      1.0  0.44528  0.42298  0.18853  1.0000
  Ti  Ti67      1.0  0.78834  0.84123  0.46917  1.0000
  Ti  Ti68      1.0  0.94701  0.32564  0.73958  1.0000
  Ti  Ti69      1.0  0.95087  0.16375  0.70564  1.0000
  Ti  Ti70      1.0  0.64281  0.40770  0.72342  1.0000
  Ti  Ti71      1.0  0.65005  0.94986  0.09200  1.0000
  Ti  Ti72      1.0  0.07831  0.96986  0.22802  1.0000
  Ti  Ti73      1.0  0.17696  0.62499  0.15511  1.0000
  Ti  Ti74      1.0  0.87867  0.56663  0.30505  1.0000
  Ti  Ti75      1.0  0.32558  0.98915  0.04786  1.0000
  Ti  Ti76      1.0  0.81369  0.34300  0.23581  1.0000
  Ti  Ti77      1.0  0.60342  0.38392  0.16230  1.0000
  Ti  Ti78      1.0  0.89836  0.92347  0.35395  1.0000
  Ti  Ti79      1.0  0.25593  0.53902  0.90493  1.0000
  Ti  Ti80      1.0  0.83221  0.35129  0.45416  1.0000
  Ti  Ti81      1.0  0.65767  0.19124  0.21855  1.0000
  Ti  Ti82      1.0  0.46536  0.61086  0.89517  1.0000
  Ti  Ti83      1.0  0.80106  0.51466  0.70528  1.0000
  Ti  Ti84      1.0  0.96602  0.53332  0.82713  1.0000
  Ti  Ti85      1.0  0.99119  0.30857  0.29214  1.0000
  Ti  Ti86      1.0  0.39454  0.44073  0.28178  1.0000
  Ti  Ti87      1.0  0.84555  0.17119  0.46346  1.0000
  Ti  Ti88      1.0  0.55891  0.91214  0.06502  1.0000
  Ti  Ti89      1.0  0.59280  0.67165  0.37878  1.0000
  Ti  Ti90      1.0  0.75922  0.23559  0.75019  1.0000
  Ti  Ti91      1.0  0.43102  0.60806  0.31875  1.0000
  Ti  Ti92      1.0  0.81249  0.00138  0.71124  1.0000
  Ti  Ti93      1.0  0.75931  0.50616  0.18671  1.0000
  Ti  Ti94      1.0  0.38223  0.69874  0.55902  1.0000
  Ti  Ti95      1.0  0.21590  0.45527  0.91040  1.0000
  Ti  Ti96      1.0  0.03816  0.36086  0.06305  1.0000
  I   I1        1.0  0.05028  0.39150  0.01559  1.0000
  I   I2        1.0  0.32252  0.16355  0.44843  1.0000
  I   I3        1.0  0.44194  0.95129  0.74644  1.0000
  I   I4        1.0  0.29221  0.63455  0.49398  1.0000
  I   I5        1.0  0.30610  0.26175  0.11922  1.0000
  I   I6        1.0  0.35835  0.23481  0.06006  1.0000
  I   I7        1.0  0.43717  0.29795  0.64670  1.0000
  I   I8        1.0  0.48199  0.31770  0.63592  1.0000
  I   I9        1.0  0.32735  0.80721  0.11765  1.0000
  I   I10       1.0  0.86275  0.71849  0.77587  1.0000
  I   I11       1.0  0.30613  0.38531  0.52111  1.0000
  I   I12       1.0  0.15714  0.80331  0.69913  1.0000
  I   I13       1.0  0.26450  0.32691  0.57912  1.0000
  I   I14       1.0  0.06974  0.98240  0.64168  1.0000
  I   I15       1.0  0.59652  0.10466  0.04597  1.0000
  I   I16       1.0  0.63742  0.96939  0.85599  1.0000
  I   I17       1.0  0.47535  0.44080  0.18526  1.0000
  I   I18       1.0  0.08685  0.70955  0.86550  1.0000
  I   I19       1.0  0.47769  0.09072  0.01791  1.0000
  I   I20       1.0  0.24654  0.43782  0.57918  1.0000
  I   I21       1.0  0.96540  0.08323  0.80153  1.0000
  I   I22       1.0  0.71201  0.96664  0.00755  1.0000
  I   I23       1.0  0.64543  0.98911  0.13739  1.0000
  I   I24       1.0  0.64611  0.37259  0.68314  1.0000
  I   I25       1.0  0.91537  0.55995  0.35030  1.0000
  I   I26       1.0  0.31235  0.01713  0.11703  1.0000
  I   I27       1.0  0.26420  0.59689  0.04567  1.0000
  I   I28       1.0  0.60293  0.37785  0.08231  1.0000
  I   I29       1.0  0.92856  0.92161  0.29146  1.0000
  I   I30       1.0  0.81756  0.30167  0.25117  1.0000
  I   I31       1.0  0.82911  0.31475  0.43083  1.0000
  I   I32       1.0  0.67262  0.22195  0.23995  1.0000
  I   I33       1.0  0.24186  0.56391  0.96637  1.0000
  I   I34       1.0  0.81693  0.54349  0.73091  1.0000
  I   I35       1.0  0.94501  0.53141  0.90050  1.0000
  I   I36       1.0  0.50068  0.68372  0.88028  1.0000
  I   I37       1.0  0.03056  0.27676  0.32916  1.0000
  I   I38       1.0  0.77610  0.16757  0.58030  1.0000
  I   I39       1.0  0.07662  0.24066  0.20025  1.0000
  I   I40       1.0  0.61408  0.69188  0.41822  1.0000
  I   I41       1.0  0.73575  0.21971  0.79508  1.0000
  I   I42       1.0  0.49124  0.91262  0.18971  1.0000
  I   I43       1.0  0.60351  0.08088  0.64593  1.0000
  I   I44       1.0  0.73721  0.47548  0.18079  1.0000
  I   I45       1.0  0.40904  0.60843  0.24823  1.0000
  I   I46       1.0  0.24010  0.38118  0.97479  1.0000
  I   I47       1.0  0.01183  0.39623  0.12707  1.0000
  I   I48       1.0  0.39226  0.73364  0.56607  1.0000
  I   I49       1.0  0.44174  0.88998  0.72968  1.0000
  I   I50       1.0  0.37081  0.17860  0.48443  1.0000
  I   I51       1.0  0.34244  0.18029  0.59737  1.0000
  I   I52       1.0  0.85921  0.18603  0.04116  1.0000
  I   I53       1.0  0.22287  0.68474  0.50511  1.0000
  I   I54       1.0  0.40655  0.15927  0.03646  1.0000
  I   I55       1.0  0.86034  0.95798  0.92392  1.0000
  I   I56       1.0  0.50197  0.28700  0.53099  1.0000
  I   I57       1.0  0.30522  0.87061  0.08706  1.0000
  I   I58       1.0  0.79627  0.71695  0.67282  1.0000
  I   I59       1.0  0.83303  0.75373  0.67323  1.0000
  I   I60       1.0  0.05322  0.68151  0.48243  1.0000
  I   I61       1.0  0.23371  0.38043  0.44753  1.0000
  I   I62       1.0  0.19608  0.34186  0.50936  1.0000
  I   I63       1.0  0.07619  0.92746  0.59156  1.0000
  I   I64       1.0  0.58306  0.98271  0.94925  1.0000
  I   I65       1.0  0.07035  0.52673  0.77109  1.0000
  I   I66       1.0  0.43509  0.44215  0.11432  1.0000
  I   I67       1.0  0.81309  0.79306  0.44593  1.0000
  I   I68       1.0  0.46177  0.03504  0.98578  1.0000
  I   I69       1.0  0.96312  0.19162  0.74587  1.0000
  I   I70       1.0  0.59923  0.43470  0.70290  1.0000
  I   I71       1.0  0.64419  0.98146  0.03229  1.0000
  I   I72       1.0  0.09528  0.92390  0.23690  1.0000
  I   I73       1.0  0.19276  0.60649  0.07240  1.0000
  I   I74       1.0  0.30961  0.05460  0.92127  1.0000
  I   I75       1.0  0.32288  0.94936  0.05651  1.0000
  I   I76       1.0  0.69291  0.34348  0.21796  1.0000
  I   I77       1.0  0.55631  0.40818  0.18377  1.0000
  I   I78       1.0  0.92891  0.88560  0.39494  1.0000
  I   I79       1.0  0.40297  0.88690  0.31058  1.0000
  I   I80       1.0  0.85254  0.35419  0.53427  1.0000
  I   I81       1.0  0.62952  0.21139  0.15367  1.0000
  I   I82       1.0  0.52760  0.63228  0.76975  1.0000
  I   I83       1.0  0.78740  0.53178  0.62505  1.0000
  I   I84       1.0  0.94998  0.61848  0.86633  1.0000
  I   I85       1.0  0.01760  0.33117  0.26360  1.0000
  I   I86       1.0  0.37091  0.48061  0.32443  1.0000
  I   I87       1.0  0.82646  0.18529  0.59074  1.0000
  I   I88       1.0  0.47700  0.85650  0.21524  1.0000
  I   I89       1.0  0.57740  0.69110  0.29850  1.0000
  I   I90       1.0  0.74551  0.23498  0.67525  1.0000
  I   I91       1.0  0.40294  0.62961  0.38249  1.0000
  I   I92       1.0  0.78558  0.03232  0.76264  1.0000
  I   I93       1.0  0.84287  0.51605  0.16721  1.0000
  I   I94       1.0  0.40464  0.69042  0.46925  1.0000
  I   I95       1.0  0.21320  0.41747  0.87510  1.0000
  I   I96       1.0  0.07188  0.33210  0.01515  1.0000
  I   I97       1.0  0.93856  0.63660  0.15676  1.0000
  I   I98       1.0  0.50961  0.91446  0.79044  1.0000
  I   I99       1.0  0.30523  0.09175  0.50196  1.0000
  I   I100      1.0  0.90246  0.10407  0.01695  1.0000
  I   I101      1.0  0.89868  0.12456  0.91194  1.0000
  I   I102      1.0  0.20974  0.77532  0.62597  1.0000
  I   I103      1.0  0.87611  0.98812  0.04233  1.0000
  I   I104      1.0  0.90072  0.93948  0.84855  1.0000
  I   I105      1.0  0.25475  0.84120  0.08633  1.0000
  I   I106      1.0  0.09394  0.66841  0.32779  1.0000
  I   I107      1.0  0.83515  0.68598  0.75945  1.0000
  I   I108      1.0  0.05725  0.64139  0.56756  1.0000
  I   I109      1.0  0.54198  0.16285  0.03598  1.0000
  I   I110      1.0  0.28243  0.25645  0.56172  1.0000
  I   I111      1.0  0.09742  0.02069  0.50397  1.0000
  I   I112      1.0  0.04863  0.62134  0.86187  1.0000
  I   I113      1.0  0.08130  0.54074  0.89300  1.0000
  I   I114      1.0  0.45226  0.15369  0.89697  1.0000
  I   I115      1.0  0.83439  0.80926  0.34988  1.0000
  I   I116      1.0  0.82808  0.83699  0.50711  1.0000
  I   I117      1.0  0.93546  0.30223  0.79577  1.0000
  I   I118      1.0  0.65178  0.42917  0.65711  1.0000
  I   I119      1.0  0.69204  0.41068  0.87123  1.0000
  I   I120      1.0  0.05536  0.00443  0.17069  1.0000
  I   I121      1.0  0.20074  0.64906  0.13079  1.0000
  I   I122      1.0  0.79474  0.64205  0.33074  1.0000
  I   I123      1.0  0.27305  0.02167  0.86140  1.0000
  I   I124      1.0  0.82986  0.33448  0.15660  1.0000
  I   I125      1.0  0.67468  0.38101  0.12673  1.0000
  I   I126      1.0  0.86043  0.87607  0.39021  1.0000
  I   I127      1.0  0.37549  0.89059  0.44016  1.0000
  I   I128      1.0  0.83061  0.30180  0.54747  1.0000
  I   I129      1.0  0.70416  0.16050  0.18156  1.0000
  I   I130      1.0  0.93043  0.57525  0.79977  1.0000
  I   I131      1.0  0.48234  0.64195  0.91950  1.0000
  I   I132      1.0  0.77928  0.48702  0.68551  1.0000
  I   I133      1.0  0.83112  0.12391  0.62769  1.0000
  I   I134      1.0  0.34204  0.41339  0.41831  1.0000
  I   I135      1.0  0.40443  0.41151  0.35859  1.0000
  I   I136      1.0  0.79379  0.27016  0.81573  1.0000
  I   I137      1.0  0.55291  0.91715  0.97596  1.0000
  I   I138      1.0  0.50122  0.72806  0.29079  1.0000
  I   I139      1.0  0.52561  0.54095  0.36425  1.0000
  I   I140      1.0  0.80539  0.03037  0.64165  1.0000
  I   I141      1.0  0.77233  0.53263  0.14030  1.0000
  I   I142      1.0  0.48670  0.64370  0.56812  1.0000
  I   I143      1.0  0.18929  0.37029  0.93150  1.0000
  I   I144      1.0  0.04489  0.42279  0.18523  1.0000
  I   I145      1.0  0.54730  0.83108  0.79573  1.0000
  I   I146      1.0  0.36821  0.11720  0.53294  1.0000
  I   I147      1.0  0.89466  0.65273  0.04914  1.0000
  I   I148      1.0  0.94559  0.04160  0.99426  1.0000
  I   I149      1.0  0.21809  0.81469  0.72201  1.0000
  I   I150      1.0  0.35227  0.15956  0.10105  1.0000
  I   I151      1.0  0.94081  0.94906  0.90993  1.0000
  I   I152      1.0  0.52879  0.24769  0.69788  1.0000
  I   I153      1.0  0.28087  0.81424  0.19099  1.0000
  I   I154      1.0  0.64058  0.13180  0.55544  1.0000
  I   I155      1.0  0.32293  0.39114  0.64528  1.0000
  I   I156      1.0  0.04296  0.71309  0.37947  1.0000
  I   I157      1.0  0.64240  0.12763  0.01273  1.0000
  I   I158      1.0  0.13339  0.92892  0.65604  1.0000
  I   I159      1.0  0.59611  0.18614  0.93164  1.0000
  I   I160      1.0  0.03966  0.68674  0.89040  1.0000
  I   I161      1.0  0.45366  0.21272  0.86605  1.0000
  I   I162      1.0  0.14710  0.66548  0.92844  1.0000
  I   I163      1.0  0.77220  0.88651  0.47809  1.0000
  I   I164      1.0  0.96212  0.34773  0.78668  1.0000
  I   I165      1.0  0.93040  0.13235  0.70760  1.0000
  I   I166      1.0  0.63251  0.39153  0.81645  1.0000
  I   I167      1.0  0.72184  0.98145  0.13084  1.0000
  I   I168      1.0  0.00666  0.77690  0.07711  1.0000
  I   I169      1.0  0.86049  0.61656  0.28251  1.0000
  I   I170      1.0  0.80139  0.57891  0.33830  1.0000
  I   I171      1.0  0.16611  0.65793  0.22039  1.0000
  I   I172      1.0  0.77611  0.37451  0.20259  1.0000
  I   I173      1.0  0.89897  0.87929  0.30224  1.0000
  I   I174      1.0  0.75108  0.42886  0.27411  1.0000
  I   I175      1.0  0.90006  0.28381  0.54968  1.0000
  I   I176      1.0  0.57276  0.22498  0.16980  1.0000
  I   I177      1.0  0.28105  0.55684  0.87135  1.0000
  I   I178      1.0  0.43916  0.61313  0.96382  1.0000
  I   I179      1.0  0.75927  0.53805  0.74280  1.0000
  I   I180      1.0  0.96318  0.50050  0.78143  1.0000
  I   I181      1.0  0.96636  0.34473  0.23152  1.0000
  I   I182      1.0  0.44001  0.43072  0.28263  1.0000
  I   I183      1.0  0.81844  0.21285  0.43517  1.0000
  I   I184      1.0  0.60264  0.88508  0.07359  1.0000
  I   I185      1.0  0.54255  0.65758  0.29849  1.0000
  I   I186      1.0  0.77773  0.21831  0.84532  1.0000
  I   I187      1.0  0.85484  0.97782  0.73544  1.0000
  I   I188      1.0  0.85189  0.45062  0.19360  1.0000
  I   I189      1.0  0.43427  0.56885  0.36763  1.0000
  I   I190      1.0  0.20956  0.49471  0.93900  1.0000
  I   I191      1.0  0.28925  0.12323  0.67598  1.0000
  I   I192      1.0  0.42231  0.65634  0.56799  1.0000
  I   I193      1.0  0.46602  0.88638  0.84130  1.0000
  I   I194      1.0  0.23949  0.12723  0.79456  1.0000
  I   I195      1.0  0.94697  0.67635  0.04936  1.0000
  I   I196      1.0  0.86608  0.19176  0.94067  1.0000
  I   I197      1.0  0.59273  0.07407  0.78891  1.0000
  I   I198      1.0  0.33424  0.21058  0.01370  1.0000
  I   I199      1.0  0.94574  0.88588  0.92347  1.0000
  I   I200      1.0  0.43358  0.30026  0.52094  1.0000
  I   I201      1.0  0.37207  0.83384  0.06736  1.0000
  I   I202      1.0  0.82678  0.73345  0.93588  1.0000
  I   I203      1.0  0.98320  0.13508  0.84254  1.0000
  I   I204      1.0  0.08899  0.59735  0.47717  1.0000
  I   I205      1.0  0.20518  0.39191  0.55688  1.0000
  I   I206      1.0  0.12703  0.97808  0.59407  1.0000
  I   I207      1.0  0.58417  0.13424  0.93584  1.0000
  I   I208      1.0  0.59601  0.04064  0.91684  1.0000
  I   I209      1.0  0.41999  0.19635  0.77833  1.0000
  I   I210      1.0  0.09287  0.69172  0.98919  1.0000
  I   I211      1.0  0.75014  0.84822  0.40853  1.0000
  I   I212      1.0  0.42390  0.11187  0.95269  1.0000
  I   I213      1.0  0.99201  0.11828  0.73776  1.0000
  I   I214      1.0  0.63735  0.44566  0.79009  1.0000
  I   I215      1.0  0.66681  0.02132  0.05687  1.0000
  I   I216      1.0  0.96128  0.76764  0.17141  1.0000
  I   I217      1.0  0.82154  0.59204  0.24226  1.0000
  I   I218      1.0  0.31841  0.98972  0.95407  1.0000
  I   I219      1.0  0.21189  0.58959  0.19193  1.0000
  I   I220      1.0  0.66761  0.41246  0.25447  1.0000
  I   I221      1.0  0.82023  0.92735  0.32338  1.0000
  I   I222      1.0  0.80831  0.40664  0.18822  1.0000
  I   I223      1.0  0.83061  0.38895  0.41830  1.0000
  I   I224      1.0  0.64407  0.15590  0.20164  1.0000
  I   I225      1.0  0.38291  0.94827  0.39519  1.0000
  I   I226      1.0  0.49545  0.56769  0.92016  1.0000
  I   I227      1.0  0.81988  0.46116  0.81635  1.0000
  I   I228      1.0  0.01071  0.58144  0.84573  1.0000
  I   I229      1.0  0.95425  0.32527  0.34013  1.0000
  I   I230      1.0  0.36873  0.45227  0.45381  1.0000
  I   I231      1.0  0.87293  0.15310  0.39715  1.0000
  I   I232      1.0  0.42998  0.92684  0.23968  1.0000
  I   I233      1.0  0.57553  0.65952  0.44838  1.0000
  I   I234      1.0  0.84765  0.21185  0.82008  1.0000
  I   I235      1.0  0.58048  0.14284  0.57449  1.0000
  I   I236      1.0  0.72362  0.54232  0.22859  1.0000
  I   I237      1.0  0.48182  0.51909  0.39358  1.0000
  I   I238      1.0  0.17585  0.40722  0.03125  1.0000
  I   I239      1.0  0.00928  0.34921  0.03409  1.0000
  I   I240      1.0  0.33943  0.71084  0.51888  1.0000
  I   I241      1.0  0.56707  0.86467  0.71042  1.0000
  I   I242      1.0  0.30659  0.15181  0.53698  1.0000
  I   I243      1.0  0.88500  0.71348  0.11383  1.0000
  I   I244      1.0  0.91676  0.06506  0.87590  1.0000
  I   I245      1.0  0.28036  0.65972  0.62032  1.0000
  I   I246      1.0  0.31929  0.21601  0.19308  1.0000
  I   I247      1.0  0.92432  0.92792  0.02172  1.0000
  I   I248      1.0  0.47952  0.24994  0.76950  1.0000
  I   I249      1.0  0.26818  0.87431  0.19406  1.0000
  I   I250      1.0  0.88331  0.72195  0.88677  1.0000
  I   I251      1.0  0.31238  0.43849  0.56547  1.0000
  I   I252      1.0  0.10639  0.66858  0.45272  1.0000
  I   I253      1.0  0.22248  0.29560  0.61524  1.0000
  I   I254      1.0  0.10843  0.95042  0.50768  1.0000
  I   I255      1.0  0.54084  0.23142  0.00294  1.0000
  I   I256      1.0  0.13527  0.53453  0.80407  1.0000
  I   I257      1.0  0.48614  0.14479  0.78499  1.0000
  I   I258      1.0  0.10960  0.65044  0.83539  1.0000
  I   I259      1.0  0.77275  0.82794  0.53478  1.0000
  I   I260      1.0  0.91728  0.35017  0.68209  1.0000
  I   I261      1.0  0.91880  0.15949  0.82397  1.0000
  I   I262      1.0  0.69810  0.35033  0.82477  1.0000
  I   I263      1.0  0.64516  0.91599  0.06480  1.0000
  I   I264      1.0  0.94734  0.83092  0.12064  1.0000
  I   I265      1.0  0.85652  0.58945  0.39508  1.0000
  I   I266      1.0  0.24379  0.06787  0.96345  1.0000
  I   I267      1.0  0.13705  0.62923  0.13637  1.0000
  I   I268      1.0  0.61899  0.38303  0.24978  1.0000
  I   I269      1.0  0.86258  0.94658  0.28363  1.0000
  I   I270      1.0  0.84699  0.35050  0.27362  1.0000
  I   I271      1.0  0.87922  0.26278  0.47755  1.0000
  I   I272      1.0  0.65717  0.17764  0.29762  1.0000
  I   I273      1.0  0.33382  0.92769  0.35378  1.0000
  I   I274      1.0  0.50417  0.60063  0.83136  1.0000
  I   I275      1.0  0.84579  0.41644  0.70153  1.0000
  I   I276      1.0  0.99689  0.54459  0.77661  1.0000
  I   I277      1.0  0.03366  0.31145  0.16053  1.0000
  I   I278      1.0  0.35439  0.43467  0.28694  1.0000
  I   I279      1.0  0.81083  0.15955  0.47531  1.0000
  I   I280      1.0  0.54042  0.95764  0.08144  1.0000
  I   I281      1.0  0.55396  0.72250  0.37548  1.0000
  I   I282      1.0  0.80472  0.18965  0.74412  1.0000
  I   I283      1.0  0.64509  0.07117  0.77014  1.0000
  I   I284      1.0  0.79107  0.47011  0.13041  1.0000
  I   I285      1.0  0.47473  0.56695  0.27476  1.0000
  I   I286      1.0  0.23903  0.46046  0.84465  1.0000
  I   I287      1.0  0.06779  0.35521  0.12426  1.0000
  I   I288      1.0  0.47597  0.64941  0.43897  1.0000
  I   I289      1.0  0.49987  0.87879  0.71206  1.0000
  I   I290      1.0  0.23566  0.18069  0.72548  1.0000
  I   I291      1.0  0.33442  0.10102  0.39638  1.0000
  I   I292      1.0  0.83658  0.15310  0.96525  1.0000
  I   I293      1.0  0.27095  0.70502  0.53570  1.0000
  I   I294      1.0  0.35567  0.26013  0.18577  1.0000
  I   I295      1.0  0.86650  0.93037  0.08844  1.0000
  I   I296      1.0  0.47316  0.31050  0.75317  1.0000
  I   I297      1.0  0.37444  0.80114  0.17544  1.0000
  I   I298      1.0  0.66457  0.07748  0.58465  1.0000
  I   I299      1.0  0.80195  0.74300  0.80975  1.0000
  I   I300      1.0  0.04423  0.64629  0.39303  1.0000
  I   I301      1.0  0.59484  0.17677  0.05746  1.0000
  I   I302      1.0  0.26009  0.31535  0.46359  1.0000
  I   I303      1.0  0.06705  0.04328  0.60795  1.0000
  I   I304      1.0  0.09442  0.63144  0.92149  1.0000
  I   I305      1.0  0.57167  0.00486  0.83086  1.0000
  I   I306      1.0  0.38657  0.46419  0.20983  1.0000
  I   I307      1.0  0.78213  0.77762  0.37013  1.0000
  I   I308      1.0  0.41912  0.07852  0.09261  1.0000
  I   I309      1.0  0.96283  0.16519  0.62629  1.0000
  I   I310      1.0  0.69101  0.39513  0.73596  1.0000
  I   I311      1.0  0.61032  0.96367  0.13888  1.0000
  I   I312      1.0  0.04172  0.98696  0.28013  1.0000
  I   I313      1.0  0.26602  0.61265  0.17683  1.0000
  I   I314      1.0  0.87123  0.53219  0.33083  1.0000
  I   I315      1.0  0.27900  0.01100  0.02562  1.0000
  I   I316      1.0  0.80696  0.42318  0.29942  1.0000
  I   I317      1.0  0.61790  0.41950  0.17416  1.0000
  I   I318      1.0  0.89944  0.96334  0.36451  1.0000
  I   I319      1.0  0.28799  0.49821  0.94334  1.0000
  I   I320      1.0  0.78674  0.37285  0.46986  1.0000
  I   I321      1.0  0.57940  0.18763  0.27348  1.0000
  I   I322      1.0  0.56147  0.62668  0.86980  1.0000
  I   I323      1.0  0.84160  0.47630  0.70738  1.0000
  I   I324      1.0  0.96628  0.61730  0.75702  1.0000
  I   I325      1.0  0.00669  0.27576  0.22408  1.0000
  I   I326      1.0  0.41690  0.40247  0.21554  1.0000
  I   I327      1.0  0.86836  0.13474  0.52378  1.0000
  I   I328      1.0  0.45577  0.89732  0.10502  1.0000
  I   I329      1.0  0.63409  0.63746  0.36383  1.0000
  I   I330      1.0  0.81261  0.24560  0.71365  1.0000
  I   I331      1.0  0.46912  0.60226  0.39217  1.0000
  I   I332      1.0  0.58529  0.13757  0.75397  1.0000
  I   I333      1.0  0.78826  0.49896  0.24712  1.0000
  I   I334      1.0  0.36677  0.69744  0.63246  1.0000
  I   I335      1.0  0.17612  0.45455  0.96629  1.0000
  I   I336      1.0  0.09845  0.38684  0.10208  1.0000
  I   I337      1.0  0.57368  0.88204  0.82502  1.0000
  I   I338      1.0  0.22414  0.13823  0.65827  1.0000
  I   I339      1.0  0.25915  0.14774  0.43884  1.0000
  I   I340      1.0  0.97392  0.07331  0.95190  1.0000
  I   I341      1.0  0.16297  0.85089  0.61647  1.0000
  I   I342      1.0  0.38623  0.18724  0.16932  1.0000
  I   I343      1.0  0.82266  0.98012  0.02763  1.0000
  I   I344      1.0  0.48870  0.25009  0.62805  1.0000
  I   I345      1.0  0.33913  0.87446  0.18298  1.0000
  I   I346      1.0  0.63970  0.11895  0.68061  1.0000
  I   I347      1.0  0.84631  0.77864  0.84160  1.0000
  I   I348      1.0  0.02391  0.62142  0.48472  1.0000
  I   I349      1.0  0.52439  0.19367  0.92951  1.0000
  I   I350      1.0  0.22677  0.27577  0.48931  1.0000
  I   I351      1.0  0.04001  0.01329  0.52852  1.0000
  I   I352      1.0  0.05465  0.66380  0.77109  1.0000
  I   I353      1.0  0.13134  0.47662  0.83314  1.0000
  I   I354      1.0  0.48043  0.38247  0.18218  1.0000
  I   I355      1.0  0.77267  0.83188  0.29096  1.0000
  I   I356      1.0  0.98155  0.29173  0.69721  1.0000
  I   I357      1.0  0.90701  0.20030  0.68739  1.0000
  I   I358      1.0  0.00941  0.79725  0.19695  1.0000
  I   I359      1.0  0.69474  0.93144  0.10586  1.0000
  I   I360      1.0  0.10877  0.98584  0.24216  1.0000
  I   I361      1.0  0.27085  0.55458  0.13030  1.0000
  I   I362      1.0  0.90966  0.55026  0.24704  1.0000
  I   I363      1.0  0.36843  0.97663  0.06510  1.0000
  I   I364      1.0  0.79022  0.36365  0.32509  1.0000
  I   I365      1.0  0.63399  0.33918  0.17005  1.0000
  I   I366      1.0  0.85645  0.94150  0.42846  1.0000
  I   I367      1.0  0.21433  0.55695  0.86587  1.0000
  I   I368      1.0  0.88936  0.31324  0.45228  1.0000
  I   I369      1.0  0.60896  0.22873  0.27337  1.0000
  I   I370      1.0  0.44096  0.62192  0.82447  1.0000
  I   I371      1.0  0.77721  0.43471  0.74251  1.0000
  I   I372      1.0  0.00127  0.49526  0.86268  1.0000
  I   I373      1.0  0.08902  0.28356  0.25390  1.0000
  I   I374      1.0  0.31748  0.47889  0.36820  1.0000
  I   I375      1.0  0.87073  0.18730  0.50429  1.0000
  I   I376      1.0  0.54428  0.88432  0.09706  1.0000
  I   I377      1.0  0.50696  0.70457  0.40440  1.0000
  I   I378      1.0  0.73596  0.27874  0.77040  1.0000
  I   I379      1.0  0.44538  0.64027  0.30335  1.0000
  I   I380      1.0  0.79876  0.96938  0.71749  1.0000
  I   I381      1.0  0.83322  0.47505  0.08879  1.0000
  I   I382      1.0  0.44868  0.70931  0.51120  1.0000
  I   I383      1.0  0.25041  0.43021  0.96596  1.0000
  I   I384      1.0  0.03760  0.44977  0.08252  1.0000
