data_image0
_chemical_formula_structural       Ti96I384
_chemical_formula_sum              "Ti96 I384"
_cell_length_a       37.7434
_cell_length_b       37.1565
_cell_length_c       22.1786
_cell_angle_alpha    88.7757
_cell_angle_beta     88.7757
_cell_angle_gamma    62.1586

_space_group_name_H-M_alt    "P 1"
_space_group_IT_number       1

loop_
  _space_group_symop_operation_xyz
  'x, y, z'

loop_
  _atom_site_type_symbol
  _atom_site_label
  _atom_site_symmetry_multiplicity
  _atom_site_fract_x
  _atom_site_fract_y
  _atom_site_fract_z
  _atom_site_occupancy
  Ti  Ti1       1.0  0.16372  0.06270  0.27082  1.0000
  Ti  Ti2       1.0  0.17932  0.07040  0.59331  1.0000
  Ti  Ti3       1.0  0.17251  0.06451  0.93220  1.0000
  Ti  Ti4       1.0  0.14611  0.35040  0.24590  1.0000
  Ti  Ti5       1.0  0.15113  0.35557  0.59827  1.0000
  Ti  Ti6       1.0  0.13832  0.37171  0.92340  1.0000
  Ti  Ti7       1.0  0.16369  0.57594  0.24717  1.0000
  Ti  Ti8       1.0  0.17222  0.58099  0.58808  1.0000
  Ti  Ti9       1.0  0.18372  0.56480  0.93225  1.0000
  Ti  Ti10      1.0  0.13093  0.85921  0.27107  1.0000
  Ti  Ti11      1.0  0.13060  0.85438  0.59331  1.0000
  Ti  Ti12      1.0  0.13641  0.85400  0.92465  1.0000
  Ti  Ti13      1.0  0.41095  0.10536  0.27694  1.0000
  Ti  Ti14      1.0  0.39783  0.09729  0.60324  1.0000
  Ti  Ti15      1.0  0.42377  0.09852  0.94376  1.0000
  Ti  Ti16      1.0  0.42617  0.33036  0.27035  1.0000
  Ti  Ti17      1.0  0.42035  0.33613  0.60299  1.0000
  Ti  Ti18      1.0  0.43214  0.33162  0.93576  1.0000
  Ti  Ti19      1.0  0.37964  0.62155  0.23658  1.0000
  Ti  Ti20      1.0  0.37896  0.62754  0.56431  1.0000
  Ti  Ti21      1.0  0.37959  0.61153  0.88685  1.0000
  Ti  Ti22      1.0  0.43183  0.81565  0.22041  1.0000
  Ti  Ti23      1.0  0.42939  0.81484  0.55408  1.0000
  Ti  Ti24      1.0  0.43093  0.81942  0.87879  1.0000
  Ti  Ti25      1.0  0.68139  0.07195  0.25841  1.0000
  Ti  Ti26      1.0  0.69087  0.07961  0.60218  1.0000
  Ti  Ti27      1.0  0.68553  0.07332  0.93454  1.0000
  Ti  Ti28      1.0  0.61464  0.38697  0.21142  1.0000
  Ti  Ti29      1.0  0.61586  0.37534  0.54784  1.0000
  Ti  Ti30      1.0  0.61162  0.38083  0.88942  1.0000
  Ti  Ti31      1.0  0.66102  0.57674  0.20756  1.0000
  Ti  Ti32      1.0  0.66776  0.56193  0.53675  1.0000
  Ti  Ti33      1.0  0.66843  0.56042  0.87398  1.0000
  Ti  Ti34      1.0  0.66610  0.83061  0.27444  1.0000
  Ti  Ti35      1.0  0.66819  0.81772  0.61088  1.0000
  Ti  Ti36      1.0  0.67775  0.82050  0.94114  1.0000
  Ti  Ti37      1.0  0.87355  0.14613  0.27919  1.0000
  Ti  Ti38      1.0  0.86690  0.13963  0.59738  1.0000
  Ti  Ti39      1.0  0.86814  0.13461  0.93115  1.0000
  Ti  Ti40      1.0  0.90359  0.33495  0.20490  1.0000
  Ti  Ti41      1.0  0.91242  0.33574  0.55248  1.0000
  Ti  Ti42      1.0  0.90619  0.34690  0.89406  1.0000
  Ti  Ti43      1.0  0.90183  0.58615  0.26263  1.0000
  Ti  Ti44      1.0  0.91075  0.60122  0.61473  1.0000
  Ti  Ti45      1.0  0.91116  0.58875  0.93228  1.0000
  Ti  Ti46      1.0  0.90486  0.80680  0.25926  1.0000
  Ti  Ti47      1.0  0.90956  0.81663  0.58886  1.0000
  Ti  Ti48      1.0  0.91107  0.82772  0.91992  1.0000
  Ti  Ti49      1.0  0.11532  0.14529  0.09510  1.0000
  Ti  Ti50      1.0  0.11901  0.14585  0.43218  1.0000
  Ti  Ti51      1.0  0.12068  0.13471  0.75864  1.0000
  Ti  Ti52      1.0  0.07370  0.42338  0.09314  1.0000
  Ti  Ti53      1.0  0.08584  0.41589  0.42214  1.0000
  Ti  Ti54      1.0  0.06481  0.42834  0.76221  1.0000
  Ti  Ti55      1.0  0.11567  0.63307  0.07739  1.0000
  Ti  Ti56      1.0  0.09968  0.64704  0.43138  1.0000
  Ti  Ti57      1.0  0.11903  0.63611  0.76365  1.0000
  Ti  Ti58      1.0  0.07122  0.92036  0.08450  1.0000
  Ti  Ti59      1.0  0.06329  0.92621  0.42784  1.0000
  Ti  Ti60      1.0  0.07624  0.92337  0.76098  1.0000
  Ti  Ti61      1.0  0.36014  0.16369  0.09798  1.0000
  Ti  Ti62      1.0  0.33658  0.16993  0.43389  1.0000
  Ti  Ti63      1.0  0.35669  0.15801  0.76928  1.0000
  Ti  Ti64      1.0  0.36653  0.39653  0.10315  1.0000
  Ti  Ti65      1.0  0.36235  0.41133  0.44164  1.0000
  Ti  Ti66      1.0  0.35619  0.39385  0.77482  1.0000
  Ti  Ti67      1.0  0.32870  0.68008  0.05799  1.0000
  Ti  Ti68      1.0  0.32265  0.69907  0.38417  1.0000
  Ti  Ti69      1.0  0.30974  0.69291  0.72438  1.0000
  Ti  Ti70      1.0  0.37503  0.87863  0.05019  1.0000
  Ti  Ti71      1.0  0.36839  0.89422  0.37994  1.0000
  Ti  Ti72      1.0  0.35764  0.88569  0.71432  1.0000
  Ti  Ti73      1.0  0.61809  0.14399  0.09038  1.0000
  Ti  Ti74      1.0  0.62795  0.14214  0.42118  1.0000
  Ti  Ti75      1.0  0.62283  0.14759  0.76695  1.0000
  Ti  Ti76      1.0  0.54522  0.44668  0.06088  1.0000
  Ti  Ti77      1.0  0.55704  0.44323  0.38919  1.0000
  Ti  Ti78      1.0  0.54910  0.44008  0.71436  1.0000
  Ti  Ti79      1.0  0.59224  0.62610  0.04260  1.0000
  Ti  Ti80      1.0  0.59418  0.64405  0.37819  1.0000
  Ti  Ti81      1.0  0.60078  0.63866  0.71571  1.0000
  Ti  Ti82      1.0  0.61501  0.89750  0.10539  1.0000
  Ti  Ti83      1.0  0.61315  0.90095  0.44464  1.0000
  Ti  Ti84      1.0  0.61400  0.89901  0.77957  1.0000
  Ti  Ti85      1.0  0.80827  0.19868  0.09533  1.0000
  Ti  Ti86      1.0  0.79681  0.21126  0.43911  1.0000
  Ti  Ti87      1.0  0.80643  0.20032  0.76580  1.0000
  Ti  Ti88      1.0  0.82583  0.41721  0.05543  1.0000
  Ti  Ti89      1.0  0.84257  0.39389  0.38527  1.0000
  Ti  Ti90      1.0  0.84057  0.39707  0.70962  1.0000
  Ti  Ti91      1.0  0.83492  0.65899  0.09567  1.0000
  Ti  Ti92      1.0  0.83923  0.63891  0.43479  1.0000
  Ti  Ti93      1.0  0.84086  0.65450  0.76773  1.0000
  Ti  Ti94      1.0  0.85401  0.89275  0.09185  1.0000
  Ti  Ti95      1.0  0.85071  0.88360  0.42487  1.0000
  Ti  Ti96      1.0  0.85183  0.88747  0.75104  1.0000
  I   I1        1.0  0.08694  0.12480  0.34121  1.0000
  I   I2        1.0  0.09865  0.10208  0.67517  1.0000
  I   I3        1.0  0.08929  0.11715  0.00347  1.0000
  I   I4        1.0  0.08361  0.36803  0.33147  1.0000
  I   I5        1.0  0.06068  0.39121  0.66487  1.0000
  I   I6        1.0  0.06520  0.38989  0.98784  1.0000
  I   I7        1.0  0.08191  0.61756  0.30757  1.0000
  I   I8        1.0  0.10163  0.60364  0.66713  1.0000
  I   I9        1.0  0.10693  0.59535  0.98126  1.0000
  I   I10       1.0  0.05224  0.89305  0.32128  1.0000
  I   I11       1.0  0.05676  0.89256  0.64636  1.0000
  I   I12       1.0  0.05820  0.88944  0.98513  1.0000
  I   I13       1.0  0.31948  0.15930  0.30881  1.0000
  I   I14       1.0  0.32164  0.14492  0.66936  1.0000
  I   I15       1.0  0.35001  0.12956  0.00158  1.0000
  I   I16       1.0  0.35134  0.38723  0.33396  1.0000
  I   I17       1.0  0.34764  0.34958  0.68395  1.0000
  I   I18       1.0  0.35402  0.36281  0.00654  1.0000
  I   I19       1.0  0.30406  0.66032  0.29332  1.0000
  I   I20       1.0  0.29162  0.66806  0.62795  1.0000
  I   I21       1.0  0.31092  0.64598  0.96741  1.0000
  I   I22       1.0  0.35481  0.85082  0.28911  1.0000
  I   I23       1.0  0.34800  0.84957  0.61730  1.0000
  I   I24       1.0  0.35838  0.85072  0.95232  1.0000
  I   I25       1.0  0.61492  0.09738  0.33247  1.0000
  I   I26       1.0  0.61617  0.10491  0.66610  1.0000
  I   I27       1.0  0.61013  0.10356  0.99139  1.0000
  I   I28       1.0  0.54049  0.40803  0.28783  1.0000
  I   I29       1.0  0.53949  0.40075  0.61072  1.0000
  I   I30       1.0  0.53057  0.41646  0.95830  1.0000
  I   I31       1.0  0.57635  0.62431  0.27014  1.0000
  I   I32       1.0  0.59006  0.60561  0.60490  1.0000
  I   I33       1.0  0.58528  0.59449  0.92888  1.0000
  I   I34       1.0  0.59031  0.87164  0.33038  1.0000
  I   I35       1.0  0.59628  0.86715  0.67771  1.0000
  I   I36       1.0  0.59442  0.87254  0.00623  1.0000
  I   I37       1.0  0.79454  0.17741  0.32946  1.0000
  I   I38       1.0  0.79209  0.16873  0.65527  1.0000
  I   I39       1.0  0.79773  0.14717  0.00835  1.0000
  I   I40       1.0  0.83678  0.35232  0.29057  1.0000
  I   I41       1.0  0.83924  0.35179  0.62101  1.0000
  I   I42       1.0  0.82148  0.37243  0.95113  1.0000
  I   I43       1.0  0.83418  0.59288  0.33533  1.0000
  I   I44       1.0  0.82494  0.63002  0.65844  1.0000
  I   I45       1.0  0.83344  0.61611  0.99774  1.0000
  I   I46       1.0  0.83033  0.85039  0.32550  1.0000
  I   I47       1.0  0.83143  0.85072  0.64127  1.0000
  I   I48       1.0  0.83569  0.86320  0.98386  1.0000
  I   I49       1.0  0.15515  0.14077  0.19916  1.0000
  I   I50       1.0  0.15621  0.14863  0.53984  1.0000
  I   I51       1.0  0.16347  0.12994  0.87139  1.0000
  I   I52       1.0  0.10307  0.43653  0.18986  1.0000
  I   I53       1.0  0.11411  0.43586  0.52831  1.0000
  I   I54       1.0  0.09925  0.45387  0.85828  1.0000
  I   I55       1.0  0.15127  0.64850  0.17886  1.0000
  I   I56       1.0  0.12225  0.66464  0.54470  1.0000
  I   I57       1.0  0.15999  0.64224  0.87181  1.0000
  I   I58       1.0  0.10956  0.93455  0.20293  1.0000
  I   I59       1.0  0.10326  0.93430  0.52835  1.0000
  I   I60       1.0  0.10610  0.93815  0.86236  1.0000
  I   I61       1.0  0.39501  0.17978  0.20401  1.0000
  I   I62       1.0  0.36841  0.17811  0.53789  1.0000
  I   I63       1.0  0.38964  0.17564  0.87764  1.0000
  I   I64       1.0  0.41636  0.40393  0.19273  1.0000
  I   I65       1.0  0.38724  0.41954  0.55733  1.0000
  I   I66       1.0  0.39113  0.40749  0.86917  1.0000
  I   I67       1.0  0.35943  0.69727  0.16740  1.0000
  I   I68       1.0  0.35733  0.70344  0.48954  1.0000
  I   I69       1.0  0.34667  0.69307  0.83252  1.0000
  I   I70       1.0  0.41106  0.89060  0.16139  1.0000
  I   I71       1.0  0.39773  0.89740  0.48871  1.0000
  I   I72       1.0  0.39145  0.89865  0.81994  1.0000
  I   I73       1.0  0.64571  0.16196  0.19446  1.0000
  I   I74       1.0  0.65996  0.15422  0.52448  1.0000
  I   I75       1.0  0.64496  0.15707  0.87619  1.0000
  I   I76       1.0  0.56874  0.47491  0.15737  1.0000
  I   I77       1.0  0.57516  0.45950  0.49243  1.0000
  I   I78       1.0  0.58811  0.45055  0.81617  1.0000
  I   I79       1.0  0.61852  0.65132  0.14229  1.0000
  I   I80       1.0  0.63944  0.64205  0.47627  1.0000
  I   I81       1.0  0.63654  0.64703  0.81372  1.0000
  I   I82       1.0  0.64090  0.91343  0.22080  1.0000
  I   I83       1.0  0.65231  0.89433  0.54043  1.0000
  I   I84       1.0  0.64979  0.90808  0.87809  1.0000
  I   I85       1.0  0.84219  0.21443  0.19735  1.0000
  I   I86       1.0  0.83466  0.22062  0.54547  1.0000
  I   I87       1.0  0.82739  0.21688  0.87161  1.0000
  I   I88       1.0  0.86542  0.43067  0.14777  1.0000
  I   I89       1.0  0.86572  0.42119  0.48707  1.0000
  I   I90       1.0  0.87082  0.42115  0.82341  1.0000
  I   I91       1.0  0.84955  0.67487  0.21102  1.0000
  I   I92       1.0  0.86438  0.66705  0.53584  1.0000
  I   I93       1.0  0.87374  0.66739  0.87929  1.0000
  I   I94       1.0  0.87496  0.89835  0.20509  1.0000
  I   I95       1.0  0.87826  0.90265  0.51955  1.0000
  I   I96       1.0  0.87138  0.90660  0.85227  1.0000
  I   I97       1.0  0.18831  0.08231  0.05094  1.0000
  I   I98       1.0  0.20165  0.08311  0.35905  1.0000
  I   I99       1.0  0.19806  0.08647  0.70741  1.0000
  I   I100      1.0  0.15232  0.39945  0.03087  1.0000
  I   I101      1.0  0.16269  0.38981  0.35241  1.0000
  I   I102      1.0  0.14857  0.39847  0.69812  1.0000
  I   I103      1.0  0.19747  0.59589  0.04375  1.0000
  I   I104      1.0  0.16906  0.61976  0.34832  1.0000
  I   I105      1.0  0.19687  0.60991  0.68239  1.0000
  I   I106      1.0  0.14640  0.88604  0.02878  1.0000
  I   I107      1.0  0.14618  0.89364  0.37194  1.0000
  I   I108      1.0  0.14366  0.90214  0.68601  1.0000
  I   I109      1.0  0.44094  0.13353  0.04043  1.0000
  I   I110      1.0  0.41568  0.13834  0.38352  1.0000
  I   I111      1.0  0.43176  0.11701  0.70489  1.0000
  I   I112      1.0  0.44898  0.35660  0.04315  1.0000
  I   I113      1.0  0.43947  0.37846  0.36922  1.0000
  I   I114      1.0  0.43193  0.36486  0.71251  1.0000
  I   I115      1.0  0.40347  0.63358  0.99602  1.0000
  I   I116      1.0  0.40288  0.63771  0.33870  1.0000
  I   I117      1.0  0.39454  0.66018  0.65926  1.0000
  I   I118      1.0  0.44900  0.84226  0.98658  1.0000
  I   I119      1.0  0.44545  0.84364  0.33151  1.0000
  I   I120      1.0  0.43390  0.86339  0.64128  1.0000
  I   I121      1.0  0.69577  0.11878  0.03600  1.0000
  I   I122      1.0  0.70686  0.10573  0.36065  1.0000
  I   I123      1.0  0.70188  0.11316  0.70478  1.0000
  I   I124      1.0  0.63185  0.40173  0.99127  1.0000
  I   I125      1.0  0.63248  0.42037  0.31380  1.0000
  I   I126      1.0  0.63012  0.40436  0.67131  1.0000
  I   I127      1.0  0.67729  0.59376  0.97471  1.0000
  I   I128      1.0  0.68353  0.60234  0.29968  1.0000
  I   I129      1.0  0.68645  0.58708  0.64002  1.0000
  I   I130      1.0  0.69571  0.84826  0.04446  1.0000
  I   I131      1.0  0.68905  0.85162  0.38469  1.0000
  I   I132      1.0  0.68518  0.85075  0.71331  1.0000
  I   I133      1.0  0.88172  0.17878  0.02304  1.0000
  I   I134      1.0  0.88011  0.17706  0.38107  1.0000
  I   I135      1.0  0.88705  0.16504  0.70287  1.0000
  I   I136      1.0  0.90427  0.39234  0.00011  1.0000
  I   I137      1.0  0.91137  0.37987  0.30807  1.0000
  I   I138      1.0  0.91769  0.38187  0.64745  1.0000
  I   I139      1.0  0.91263  0.62688  0.04298  1.0000
  I   I140      1.0  0.92262  0.61081  0.37671  1.0000
  I   I141      1.0  0.91607  0.63842  0.71375  1.0000
  I   I142      1.0  0.93055  0.83976  0.03347  1.0000
  I   I143      1.0  0.92701  0.83272  0.36805  1.0000
  I   I144      1.0  0.93111  0.85416  0.68308  1.0000
  I   I145      1.0  0.11563  0.07223  0.17518  1.0000
  I   I146      1.0  0.13249  0.07020  0.50496  1.0000
  I   I147      1.0  0.13192  0.06008  0.83011  1.0000
  I   I148      1.0  0.11218  0.33564  0.14396  1.0000
  I   I149      1.0  0.12569  0.33738  0.49133  1.0000
  I   I150      1.0  0.10673  0.34743  0.81682  1.0000
  I   I151      1.0  0.12551  0.56080  0.15377  1.0000
  I   I152      1.0  0.13812  0.56781  0.47660  1.0000
  I   I153      1.0  0.15946  0.55574  0.81406  1.0000
  I   I154      1.0  0.10686  0.84485  0.15575  1.0000
  I   I155      1.0  0.09653  0.84921  0.48542  1.0000
  I   I156      1.0  0.11218  0.83956  0.82048  1.0000
  I   I157      1.0  0.36935  0.09153  0.17141  1.0000
  I   I158      1.0  0.36598  0.08370  0.49798  1.0000
  I   I159      1.0  0.37820  0.08524  0.85701  1.0000
  I   I160      1.0  0.39893  0.32018  0.16731  1.0000
  I   I161      1.0  0.38134  0.33155  0.50988  1.0000
  I   I162      1.0  0.39396  0.31369  0.84216  1.0000
  I   I163      1.0  0.33323  0.61483  0.12640  1.0000
  I   I164      1.0  0.33507  0.62827  0.46247  1.0000
  I   I165      1.0  0.34398  0.60662  0.78386  1.0000
  I   I166      1.0  0.39736  0.80312  0.11902  1.0000
  I   I167      1.0  0.39146  0.81284  0.44436  1.0000
  I   I168      1.0  0.39857  0.80525  0.78039  1.0000
  I   I169      1.0  0.65111  0.05825  0.15964  1.0000
  I   I170      1.0  0.66636  0.06070  0.49551  1.0000
  I   I171      1.0  0.66260  0.06087  0.82090  1.0000
  I   I172      1.0  0.58016  0.36779  0.12518  1.0000
  I   I173      1.0  0.58471  0.35584  0.45582  1.0000
  I   I174      1.0  0.57526  0.36107  0.78263  1.0000
  I   I175      1.0  0.62912  0.55396  0.10473  1.0000
  I   I176      1.0  0.61790  0.56734  0.43471  1.0000
  I   I177      1.0  0.63290  0.55901  0.76399  1.0000
  I   I178      1.0  0.62843  0.82546  0.17846  1.0000
  I   I179      1.0  0.62288  0.81955  0.51943  1.0000
  I   I180      1.0  0.63021  0.82050  0.84903  1.0000
  I   I181      1.0  0.86265  0.12445  0.15070  1.0000
  I   I182      1.0  0.83150  0.13177  0.49353  1.0000
  I   I183      1.0  0.84272  0.11644  0.82642  1.0000
  I   I184      1.0  0.86043  0.33034  0.11887  1.0000
  I   I185      1.0  0.88758  0.31690  0.44761  1.0000
  I   I186      1.0  0.87887  0.32456  0.78792  1.0000
  I   I187      1.0  0.86898  0.58096  0.15603  1.0000
  I   I188      1.0  0.87627  0.56880  0.51333  1.0000
  I   I189      1.0  0.88136  0.57646  0.83070  1.0000
  I   I190      1.0  0.87617  0.80869  0.15450  1.0000
  I   I191      1.0  0.87850  0.80581  0.48998  1.0000
  I   I192      1.0  0.87835  0.80997  0.81167  1.0000
  I   I193      1.0  0.23213  0.01878  0.21650  1.0000
  I   I194      1.0  0.24547  0.03882  0.53539  1.0000
  I   I195      1.0  0.24929  0.02446  0.90250  1.0000
  I   I196      1.0  0.21215  0.34174  0.19170  1.0000
  I   I197      1.0  0.21801  0.34640  0.55463  1.0000
  I   I198      1.0  0.20038  0.36985  0.86749  1.0000
  I   I199      1.0  0.24004  0.54725  0.22363  1.0000
  I   I200      1.0  0.23161  0.57064  0.52062  1.0000
  I   I201      1.0  0.25667  0.55330  0.90401  1.0000
  I   I202      1.0  0.20223  0.82927  0.21292  1.0000
  I   I203      1.0  0.20348  0.83579  0.55726  1.0000
  I   I204      1.0  0.21439  0.82897  0.89192  1.0000
  I   I205      1.0  0.48426  0.06826  0.24461  1.0000
  I   I206      1.0  0.46527  0.07842  0.54509  1.0000
  I   I207      1.0  0.49487  0.07714  0.89469  1.0000
  I   I208      1.0  0.50307  0.30339  0.25086  1.0000
  I   I209      1.0  0.49001  0.32522  0.55402  1.0000
  I   I210      1.0  0.50283  0.30999  0.88664  1.0000
  I   I211      1.0  0.44953  0.59152  0.18078  1.0000
  I   I212      1.0  0.45662  0.59344  0.52808  1.0000
  I   I213      1.0  0.45038  0.58347  0.83552  1.0000
  I   I214      1.0  0.50624  0.78259  0.17036  1.0000
  I   I215      1.0  0.49664  0.80203  0.49727  1.0000
  I   I216      1.0  0.50179  0.79947  0.83312  1.0000
  I   I217      1.0  0.74590  0.06867  0.20114  1.0000
  I   I218      1.0  0.76371  0.05547  0.55903  1.0000
  I   I219      1.0  0.75601  0.06178  0.90140  1.0000
  I   I220      1.0  0.68191  0.37954  0.16728  1.0000
  I   I221      1.0  0.68417  0.36760  0.50581  1.0000
  I   I222      1.0  0.68416  0.34696  0.84732  1.0000
  I   I223      1.0  0.72954  0.54773  0.14935  1.0000
  I   I224      1.0  0.73447  0.53085  0.47575  1.0000
  I   I225      1.0  0.73851  0.53942  0.82914  1.0000
  I   I226      1.0  0.73631  0.81147  0.23245  1.0000
  I   I227      1.0  0.74078  0.78506  0.55963  1.0000
  I   I228      1.0  0.74309  0.80134  0.88680  1.0000
  I   I229      1.0  0.94181  0.13881  0.23151  1.0000
  I   I230      1.0  0.93873  0.11591  0.55612  1.0000
  I   I231      1.0  0.93190  0.12947  0.87769  1.0000
  I   I232      1.0  0.97531  0.31697  0.14710  1.0000
  I   I233      1.0  0.97778  0.32888  0.49835  1.0000
  I   I234      1.0  0.97411  0.34049  0.86020  1.0000
  I   I235      1.0  0.96092  0.59672  0.21388  1.0000
  I   I236      1.0  0.97830  0.58562  0.56584  1.0000
  I   I237      1.0  0.97735  0.58604  0.88795  1.0000
  I   I238      1.0  0.97668  0.79485  0.21789  1.0000
  I   I239      1.0  0.98161  0.79377  0.54036  1.0000
  I   I240      1.0  0.98285  0.80821  0.88095  1.0000
  I   I241      1.0  0.15337  0.00485  0.32212  1.0000
  I   I242      1.0  0.18919  0.00024  0.64466  1.0000
  I   I243      1.0  0.15441  0.00967  0.98177  1.0000
  I   I244      1.0  0.18219  0.27271  0.26713  1.0000
  I   I245      1.0  0.18076  0.28269  0.64431  1.0000
  I   I246      1.0  0.16912  0.30005  0.97184  1.0000
  I   I247      1.0  0.17649  0.50939  0.31207  1.0000
  I   I248      1.0  0.19807  0.50507  0.61620  1.0000
  I   I249      1.0  0.20129  0.49084  0.96013  1.0000
  I   I250      1.0  0.14633  0.78822  0.32154  1.0000
  I   I251      1.0  0.14211  0.78395  0.63740  1.0000
  I   I252      1.0  0.16475  0.77560  0.96251  1.0000
  I   I253      1.0  0.42637  0.03655  0.32565  1.0000
  I   I254      1.0  0.40923  0.02708  0.64527  1.0000
  I   I255      1.0  0.44820  0.02919  0.00536  1.0000
  I   I256      1.0  0.43877  0.26712  0.33404  1.0000
  I   I257      1.0  0.44180  0.26509  0.64710  1.0000
  I   I258      1.0  0.43960  0.26084  0.97677  1.0000
  I   I259      1.0  0.39079  0.54775  0.26471  1.0000
  I   I260      1.0  0.38392  0.56184  0.62233  1.0000
  I   I261      1.0  0.38574  0.54133  0.93206  1.0000
  I   I262      1.0  0.44493  0.74154  0.26548  1.0000
  I   I263      1.0  0.45038  0.74812  0.61013  1.0000
  I   I264      1.0  0.44795  0.75059  0.92704  1.0000
  I   I265      1.0  0.71098  0.99944  0.31120  1.0000
  I   I266      1.0  0.71891  0.00604  0.64985  1.0000
  I   I267      1.0  0.71541  0.99801  0.97038  1.0000
  I   I268      1.0  0.65718  0.31028  0.25150  1.0000
  I   I269      1.0  0.64625  0.30482  0.60110  1.0000
  I   I270      1.0  0.62631  0.30503  0.92480  1.0000
  I   I271      1.0  0.67071  0.50749  0.26164  1.0000
  I   I272      1.0  0.67573  0.49262  0.57291  1.0000
  I   I273      1.0  0.67464  0.48768  0.91202  1.0000
  I   I274      1.0  0.67634  0.76041  0.30068  1.0000
  I   I275      1.0  0.67859  0.75022  0.66461  1.0000
  I   I276      1.0  0.69560  0.75143  0.98390  1.0000
  I   I277      1.0  0.89664  0.07101  0.30934  1.0000
  I   I278      1.0  0.87847  0.06142  0.62223  1.0000
  I   I279      1.0  0.90709  0.06262  0.97614  1.0000
  I   I280      1.0  0.93484  0.26253  0.24956  1.0000
  I   I281      1.0  0.95100  0.26280  0.59620  1.0000
  I   I282      1.0  0.92612  0.27806  0.94393  1.0000
  I   I283      1.0  0.94165  0.50981  0.28474  1.0000
  I   I284      1.0  0.92994  0.53060  0.66544  1.0000
  I   I285      1.0  0.95366  0.51562  0.97915  1.0000
  I   I286      1.0  0.92485  0.73053  0.27993  1.0000
  I   I287      1.0  0.93125  0.74801  0.64732  1.0000
  I   I288      1.0  0.92413  0.75269  0.95274  1.0000
  I   I289      1.0  0.04488  0.18865  0.14644  1.0000
  I   I290      1.0  0.05151  0.19148  0.49112  1.0000
  I   I291      1.0  0.05004  0.17721  0.81267  1.0000
  I   I292      1.0  0.00395  0.43279  0.13659  1.0000
  I   I293      1.0  0.01658  0.42586  0.45605  1.0000
  I   I294      1.0  0.99899  0.44840  0.81730  1.0000
  I   I295      1.0  0.03689  0.67476  0.10279  1.0000
  I   I296      1.0  0.02794  0.66355  0.46942  1.0000
  I   I297      1.0  0.05248  0.65594  0.82443  1.0000
  I   I298      1.0  0.00273  0.93845  0.14256  1.0000
  I   I299      1.0  0.99011  0.94521  0.47046  1.0000
  I   I300      1.0  0.00810  0.92779  0.80520  1.0000
  I   I301      1.0  0.28638  0.19315  0.14361  1.0000
  I   I302      1.0  0.26043  0.19515  0.46796  1.0000
  I   I303      1.0  0.28591  0.19054  0.81811  1.0000
  I   I304      1.0  0.30271  0.42403  0.16907  1.0000
  I   I305      1.0  0.29198  0.43041  0.49041  1.0000
  I   I306      1.0  0.28938  0.41183  0.82858  1.0000
  I   I307      1.0  0.25319  0.72318  0.08866  1.0000
  I   I308      1.0  0.25279  0.73316  0.43312  1.0000
  I   I309      1.0  0.24028  0.70898  0.76583  1.0000
  I   I310      1.0  0.29879  0.90257  0.07992  1.0000
  I   I311      1.0  0.29330  0.92242  0.41132  1.0000
  I   I312      1.0  0.29493  0.90082  0.77937  1.0000
  I   I313      1.0  0.54740  0.16106  0.12836  1.0000
  I   I314      1.0  0.56170  0.15927  0.47412  1.0000
  I   I315      1.0  0.55247  0.16329  0.80571  1.0000
  I   I316      1.0  0.46875  0.47515  0.09273  1.0000
  I   I317      1.0  0.48332  0.46474  0.43548  1.0000
  I   I318      1.0  0.47438  0.46213  0.75290  1.0000
  I   I319      1.0  0.51931  0.65792  0.08083  1.0000
  I   I320      1.0  0.52490  0.68057  0.42787  1.0000
  I   I321      1.0  0.53101  0.66743  0.76769  1.0000
  I   I322      1.0  0.53948  0.93480  0.13840  1.0000
  I   I323      1.0  0.53649  0.94141  0.47233  1.0000
  I   I324      1.0  0.53751  0.92570  0.82083  1.0000
  I   I325      1.0  0.74468  0.20870  0.15691  1.0000
  I   I326      1.0  0.72811  0.22024  0.47298  1.0000
  I   I327      1.0  0.73736  0.21235  0.80892  1.0000
  I   I328      1.0  0.76075  0.42221  0.10802  1.0000
  I   I329      1.0  0.77089  0.40927  0.42779  1.0000
  I   I330      1.0  0.77257  0.41230  0.76212  1.0000
  I   I331      1.0  0.76096  0.66796  0.13033  1.0000
  I   I332      1.0  0.77175  0.63675  0.46848  1.0000
  I   I333      1.0  0.76978  0.67063  0.80872  1.0000
  I   I334      1.0  0.78028  0.91997  0.13017  1.0000
  I   I335      1.0  0.78190  0.90567  0.48236  1.0000
  I   I336      1.0  0.77566  0.91886  0.78358  1.0000
  I   I337      1.0  0.12678  0.20137  0.03851  1.0000
  I   I338      1.0  0.12317  0.20373  0.37570  1.0000
  I   I339      1.0  0.12253  0.20078  0.71563  1.0000
  I   I340      1.0  0.04550  0.50186  0.06327  1.0000
  I   I341      1.0  0.06217  0.48750  0.37776  1.0000
  I   I342      1.0  0.04299  0.50086  0.71417  1.0000
  I   I343      1.0  0.10432  0.70511  0.03245  1.0000
  I   I344      1.0  0.08709  0.71707  0.38508  1.0000
  I   I345      1.0  0.10623  0.70981  0.74199  1.0000
  I   I346      1.0  0.04873  0.99314  0.04151  1.0000
  I   I347      1.0  0.05066  0.99447  0.38848  1.0000
  I   I348      1.0  0.03938  0.99951  0.71764  1.0000
  I   I349      1.0  0.34214  0.23618  0.05247  1.0000
  I   I350      1.0  0.31727  0.24663  0.40636  1.0000
  I   I351      1.0  0.35568  0.22327  0.72085  1.0000
  I   I352      1.0  0.36624  0.46609  0.06420  1.0000
  I   I353      1.0  0.34283  0.48391  0.39770  1.0000
  I   I354      1.0  0.32987  0.46990  0.73549  1.0000
  I   I355      1.0  0.34407  0.74266  0.02701  1.0000
  I   I356      1.0  0.33056  0.76036  0.34106  1.0000
  I   I357      1.0  0.30442  0.76397  0.68124  1.0000
  I   I358      1.0  0.35692  0.95284  0.00491  1.0000
  I   I359      1.0  0.36395  0.95632  0.31797  1.0000
  I   I360      1.0  0.33930  0.95994  0.67662  1.0000
  I   I361      1.0  0.59180  0.21748  0.04186  1.0000
  I   I362      1.0  0.60903  0.21318  0.37852  1.0000
  I   I363      1.0  0.60484  0.22091  0.73101  1.0000
  I   I364      1.0  0.54299  0.51172  0.00199  1.0000
  I   I365      1.0  0.53108  0.51868  0.34891  1.0000
  I   I366      1.0  0.53727  0.51649  0.68305  1.0000
  I   I367      1.0  0.57831  0.69077  0.97619  1.0000
  I   I368      1.0  0.59430  0.70777  0.32977  1.0000
  I   I369      1.0  0.59837  0.70254  0.65613  1.0000
  I   I370      1.0  0.60274  0.96682  0.05093  1.0000
  I   I371      1.0  0.61165  0.96959  0.40392  1.0000
  I   I372      1.0  0.61268  0.96640  0.73341  1.0000
  I   I373      1.0  0.77465  0.27002  0.03755  1.0000
  I   I374      1.0  0.78147  0.28251  0.40200  1.0000
  I   I375      1.0  0.78215  0.27398  0.72803  1.0000
  I   I376      1.0  0.79839  0.48404  0.99765  1.0000
  I   I377      1.0  0.81423  0.46581  0.33326  1.0000
  I   I378      1.0  0.81003  0.46797  0.67069  1.0000
  I   I379      1.0  0.81908  0.72858  0.04448  1.0000
  I   I380      1.0  0.81223  0.71276  0.39851  1.0000
  I   I381      1.0  0.81529  0.73148  0.73541  1.0000
  I   I382      1.0  0.85937  0.95530  0.04898  1.0000
  I   I383      1.0  0.83314  0.95306  0.37392  1.0000
  I   I384      1.0  0.83643  0.95657  0.69655  1.0000
