data_image0
_chemical_formula_structural       Ti96I384
_chemical_formula_sum              "Ti96 I384"
_cell_length_a       69.0691
_cell_length_b       68.9457
_cell_length_c       33.7722
_cell_angle_alpha    88.7757
_cell_angle_beta     88.7757
_cell_angle_gamma    62.1586

_space_group_name_H-M_alt    "P 1"
_space_group_IT_number       1

loop_
  _space_group_symop_operation_xyz
  'x, y, z'

loop_
  _atom_site_type_symbol
  _atom_site_label
  _atom_site_symmetry_multiplicity
  _atom_site_fract_x
  _atom_site_fract_y
  _atom_site_fract_z
  _atom_site_occupancy
  Ti  Ti1       1.0  0.07585  0.84391  0.81202  1.0000
  Ti  Ti2       1.0  0.00627  0.15601  0.31627  1.0000
  Ti  Ti3       1.0  0.46690  0.97339  0.66442  1.0000
  Ti  Ti4       1.0  0.96330  0.35941  0.40076  1.0000
  Ti  Ti5       1.0  0.34252  0.74711  0.22759  1.0000
  Ti  Ti6       1.0  0.70464  0.95178  0.15045  1.0000
  Ti  Ti7       1.0  0.96574  0.52017  0.60919  1.0000
  Ti  Ti8       1.0  0.20031  0.71180  0.44079  1.0000
  Ti  Ti9       1.0  0.27930  0.03830  0.80380  1.0000
  Ti  Ti10      1.0  0.05961  0.58571  0.55078  1.0000
  Ti  Ti11      1.0  0.20059  0.38901  0.45830  1.0000
  Ti  Ti12      1.0  0.07897  0.57323  0.10943  1.0000
  Ti  Ti13      1.0  0.84932  0.16818  0.57724  1.0000
  Ti  Ti14      1.0  0.91369  0.01402  0.66592  1.0000
  Ti  Ti15      1.0  0.81485  0.90783  0.43131  1.0000
  Ti  Ti16      1.0  0.10511  0.60257  0.50579  1.0000
  Ti  Ti17      1.0  0.28960  0.98953  0.50677  1.0000
  Ti  Ti18      1.0  0.49014  0.83925  0.76137  1.0000
  Ti  Ti19      1.0  0.54383  0.64220  0.61763  1.0000
  Ti  Ti20      1.0  0.30943  0.16485  0.57872  1.0000
  Ti  Ti21      1.0  0.25643  0.64984  0.46749  1.0000
  Ti  Ti22      1.0  0.60479  0.89593  0.37533  1.0000
  Ti  Ti23      1.0  0.38851  0.15102  0.39845  1.0000
  Ti  Ti24      1.0  0.32443  0.69610  0.61299  1.0000
  Ti  Ti25      1.0  0.44845  0.99875  0.29352  1.0000
  Ti  Ti26      1.0  0.24729  0.82186  0.00583  1.0000
  Ti  Ti27      1.0  0.73739  0.19597  0.87759  1.0000
  Ti  Ti28      1.0  0.63858  0.70141  0.04295  1.0000
  Ti  Ti29      1.0  0.07731  0.75695  0.37991  1.0000
  Ti  Ti30      1.0  0.40312  0.91601  0.84595  1.0000
  Ti  Ti31      1.0  0.19234  0.40404  0.14016  1.0000
  Ti  Ti32      1.0  0.11098  0.14601  0.65332  1.0000
  Ti  Ti33      1.0  0.21630  0.88132  0.55543  1.0000
  Ti  Ti34      1.0  0.36390  0.28765  0.26591  1.0000
  Ti  Ti35      1.0  0.68468  0.55914  0.55118  1.0000
  Ti  Ti36      1.0  0.16748  0.09859  0.16364  1.0000
  Ti  Ti37      1.0  0.04898  0.28789  0.47090  1.0000
  Ti  Ti38      1.0  0.38630  0.51080  0.20195  1.0000
  Ti  Ti39      1.0  0.06759  0.49417  0.28099  1.0000
  Ti  Ti40      1.0  0.13858  0.42386  0.71401  1.0000
  Ti  Ti41      1.0  0.42271  0.32492  0.58201  1.0000
  Ti  Ti42      1.0  0.18123  0.97130  0.56509  1.0000
  Ti  Ti43      1.0  0.31241  0.96414  0.09735  1.0000
  Ti  Ti44      1.0  0.72467  0.78747  0.25870  1.0000
  Ti  Ti45      1.0  0.17051  0.44044  0.26507  1.0000
  Ti  Ti46      1.0  0.82903  0.36086  0.44041  1.0000
  Ti  Ti47      1.0  0.38151  0.61021  0.59583  1.0000
  Ti  Ti48      1.0  0.81464  0.01651  0.33058  1.0000
  Ti  Ti49      1.0  0.00782  0.12960  0.47161  1.0000
  Ti  Ti50      1.0  0.11541  0.32683  0.94342  1.0000
  Ti  Ti51      1.0  0.99809  0.20444  0.21480  1.0000
  Ti  Ti52      1.0  0.72098  0.15507  0.59847  1.0000
  Ti  Ti53      1.0  0.36538  0.73245  0.50368  1.0000
  Ti  Ti54      1.0  0.81564  0.95389  0.04350  1.0000
  Ti  Ti55      1.0  0.01377  0.51148  0.52600  1.0000
  Ti  Ti56      1.0  0.77880  0.33932  0.04338  1.0000
  Ti  Ti57      1.0  0.31962  0.06027  0.72199  1.0000
  Ti  Ti58      1.0  0.62321  0.33994  0.64433  1.0000
  Ti  Ti59      1.0  0.51602  0.32227  0.85566  1.0000
  Ti  Ti60      1.0  0.05722  0.61738  0.99391  1.0000
  Ti  Ti61      1.0  0.84836  0.86143  0.49647  1.0000
  Ti  Ti62      1.0  0.81239  0.18144  0.50726  1.0000
  Ti  Ti63      1.0  0.95318  0.98475  0.72012  1.0000
  Ti  Ti64      1.0  0.55460  0.79893  0.78711  1.0000
  Ti  Ti65      1.0  0.77941  0.03827  0.82480  1.0000
  Ti  Ti66      1.0  0.40583  0.22265  0.87226  1.0000
  Ti  Ti67      1.0  0.49600  0.82335  0.44876  1.0000
  Ti  Ti68      1.0  0.55440  0.63898  0.71339  1.0000
  Ti  Ti69      1.0  0.21808  0.85396  0.91977  1.0000
  Ti  Ti70      1.0  0.33978  0.93545  0.18553  1.0000
  Ti  Ti71      1.0  0.35008  0.13955  0.34683  1.0000
  Ti  Ti72      1.0  0.34240  0.40470  0.74179  1.0000
  Ti  Ti73      1.0  0.79918  0.14341  0.89827  1.0000
  Ti  Ti74      1.0  0.51030  0.00124  0.33084  1.0000
  Ti  Ti75      1.0  0.30714  0.80385  0.87511  1.0000
  Ti  Ti76      1.0  0.38667  0.86223  0.84080  1.0000
  Ti  Ti77      1.0  0.64128  0.70894  0.17402  1.0000
  Ti  Ti78      1.0  0.04754  0.72888  0.43124  1.0000
  Ti  Ti79      1.0  0.62858  0.57803  0.20908  1.0000
  Ti  Ti80      1.0  0.94694  0.33045  0.33209  1.0000
  Ti  Ti81      1.0  0.03778  0.19038  0.68939  1.0000
  Ti  Ti82      1.0  0.41872  0.26162  0.35869  1.0000
  Ti  Ti83      1.0  0.73754  0.55203  0.62027  1.0000
  Ti  Ti84      1.0  0.14270  0.14675  0.10576  1.0000
  Ti  Ti85      1.0  0.07007  0.24176  0.49232  1.0000
  Ti  Ti86      1.0  0.40756  0.19370  0.95910  1.0000
  Ti  Ti87      1.0  0.12397  0.51360  0.30301  1.0000
  Ti  Ti88      1.0  0.64734  0.15608  0.28730  1.0000
  Ti  Ti89      1.0  0.35602  0.37012  0.51535  1.0000
  Ti  Ti90      1.0  0.15738  0.01583  0.53067  1.0000
  Ti  Ti91      1.0  0.19379  0.68107  0.70419  1.0000
  Ti  Ti92      1.0  0.34051  0.68644  0.99204  1.0000
  Ti  Ti93      1.0  0.09752  0.76776  0.06566  1.0000
  Ti  Ti94      1.0  0.76729  0.01813  0.28409  1.0000
  Ti  Ti95      1.0  0.74144  0.43773  0.58033  1.0000
  Ti  Ti96      1.0  0.37588  0.56244  0.66791  1.0000
  I   I1        1.0  0.36358  0.65524  0.57319  1.0000
  I   I2        1.0  0.00815  0.17138  0.17132  1.0000
  I   I3        1.0  0.96749  0.14200  0.49367  1.0000
  I   I4        1.0  0.38599  0.72688  0.43616  1.0000
  I   I5        1.0  0.71357  0.91787  0.19489  1.0000
  I   I6        1.0  0.84274  0.95144  0.98709  1.0000
  I   I7        1.0  0.16895  0.70696  0.40419  1.0000
  I   I8        1.0  0.77560  0.30925  0.08119  1.0000
  I   I9        1.0  0.31977  0.06646  0.64903  1.0000
  I   I10       1.0  0.13591  0.56711  0.52953  1.0000
  I   I11       1.0  0.20821  0.37168  0.52904  1.0000
  I   I12       1.0  0.35241  0.72938  0.15439  1.0000
  I   I13       1.0  0.87211  0.17659  0.52099  1.0000
  I   I14       1.0  0.93596  0.03617  0.65047  1.0000
  I   I15       1.0  0.84528  0.91034  0.47261  1.0000
  I   I16       1.0  0.12116  0.60128  0.43441  1.0000
  I   I17       1.0  0.37139  0.21608  0.91820  1.0000
  I   I18       1.0  0.51236  0.80654  0.81820  1.0000
  I   I19       1.0  0.28592  0.14760  0.55390  1.0000
  I   I20       1.0  0.16069  0.38794  0.43058  1.0000
  I   I21       1.0  0.23926  0.70009  0.48941  1.0000
  I   I22       1.0  0.39642  0.15091  0.48037  1.0000
  I   I23       1.0  0.34605  0.17096  0.29775  1.0000
  I   I24       1.0  0.37763  0.94370  0.20001  1.0000
  I   I25       1.0  0.51737  0.03537  0.32856  1.0000
  I   I26       1.0  0.32757  0.78553  0.80629  1.0000
  I   I27       1.0  0.80493  0.16666  0.84249  1.0000
  I   I28       1.0  0.68125  0.67137  0.02077  1.0000
  I   I29       1.0  0.08245  0.70891  0.37554  1.0000
  I   I30       1.0  0.37180  0.95864  0.85569  1.0000
  I   I31       1.0  0.93153  0.34372  0.25390  1.0000
  I   I32       1.0  0.06805  0.15624  0.62921  1.0000
  I   I33       1.0  0.65819  0.56310  0.26687  1.0000
  I   I34       1.0  0.66346  0.53772  0.59743  1.0000
  I   I35       1.0  0.20191  0.08422  0.11990  1.0000
  I   I36       1.0  0.34191  0.29974  0.19237  1.0000
  I   I37       1.0  0.03872  0.25539  0.42796  1.0000
  I   I38       1.0  0.08848  0.50809  0.22311  1.0000
  I   I39       1.0  0.03652  0.27146  0.54789  1.0000
  I   I40       1.0  0.45410  0.33295  0.61767  1.0000
  I   I41       1.0  0.18794  0.93367  0.52751  1.0000
  I   I42       1.0  0.11402  0.40870  0.75390  1.0000
  I   I43       1.0  0.58340  0.37323  0.63232  1.0000
  I   I44       1.0  0.76526  0.76689  0.24015  1.0000
  I   I45       1.0  0.16541  0.48502  0.25204  1.0000
  I   I46       1.0  0.74170  0.40118  0.56266  1.0000
  I   I47       1.0  0.37849  0.59445  0.52461  1.0000
  I   I48       1.0  0.80296  0.04799  0.38074  1.0000
  I   I49       1.0  0.02390  0.09089  0.44507  1.0000
  I   I50       1.0  0.97071  0.24030  0.17724  1.0000
  I   I51       1.0  0.03046  0.21525  0.17692  1.0000
  I   I52       1.0  0.92305  0.36281  0.37951  1.0000
  I   I53       1.0  0.34512  0.71050  0.51568  1.0000
  I   I54       1.0  0.82904  0.91072  0.05634  1.0000
  I   I55       1.0  0.96472  0.54348  0.53619  1.0000
  I   I56       1.0  0.29842  0.63703  0.45178  1.0000
  I   I57       1.0  0.26520  0.03655  0.87277  1.0000
  I   I58       1.0  0.01947  0.59284  0.54738  1.0000
  I   I59       1.0  0.48412  0.34975  0.81921  1.0000
  I   I60       1.0  0.04958  0.65860  0.00916  1.0000
  I   I61       1.0  0.78551  0.22250  0.51168  1.0000
  I   I62       1.0  0.84372  0.20985  0.60604  1.0000
  I   I63       1.0  0.98922  0.98713  0.69428  1.0000
  I   I64       1.0  0.08982  0.59907  0.58414  1.0000
  I   I65       1.0  0.77969  0.00687  0.78549  1.0000
  I   I66       1.0  0.38542  0.26382  0.88720  1.0000
  I   I67       1.0  0.55691  0.60245  0.58723  1.0000
  I   I68       1.0  0.29011  0.19800  0.53673  1.0000
  I   I69       1.0  0.17758  0.87482  0.92347  1.0000
  I   I70       1.0  0.33160  0.94366  0.26211  1.0000
  I   I71       1.0  0.38685  0.18812  0.39610  1.0000
  I   I72       1.0  0.36570  0.41506  0.69641  1.0000
  I   I73       1.0  0.81568  0.10440  0.86226  1.0000
  I   I74       1.0  0.27565  0.78533  0.04927  1.0000
  I   I75       1.0  0.27048  0.82819  0.93593  1.0000
  I   I76       1.0  0.65110  0.67309  0.12318  1.0000
  I   I77       1.0  0.60725  0.71778  0.10924  1.0000
  I   I78       1.0  0.11439  0.84102  0.78474  1.0000
  I   I79       1.0  0.25654  0.87131  0.58427  1.0000
  I   I80       1.0  0.20012  0.44102  0.12129  1.0000
  I   I81       1.0  0.11503  0.11362  0.69305  1.0000
  I   I82       1.0  0.46432  0.25762  0.34596  1.0000
  I   I83       1.0  0.73120  0.53747  0.69828  1.0000
  I   I84       1.0  0.18462  0.10311  0.22784  1.0000
  I   I85       1.0  0.09372  0.25774  0.44244  1.0000
  I   I86       1.0  0.42273  0.15308  0.97571  1.0000
  I   I87       1.0  0.05110  0.49830  0.35106  1.0000
  I   I88       1.0  0.10311  0.46577  0.70778  1.0000
  I   I89       1.0  0.33040  0.39594  0.57037  1.0000
  I   I90       1.0  0.17238  0.04212  0.50212  1.0000
  I   I91       1.0  0.22558  0.66795  0.64793  1.0000
  I   I92       1.0  0.37677  0.68173  0.96173  1.0000
  I   I93       1.0  0.72429  0.79587  0.33662  1.0000
  I   I94       1.0  0.73538  0.04937  0.32470  1.0000
  I   I95       1.0  0.86884  0.35217  0.46330  1.0000
  I   I96       1.0  0.35037  0.55316  0.62633  1.0000
  I   I97       1.0  0.50626  0.96116  0.68987  1.0000
  I   I98       1.0  0.03709  0.88117  0.80709  1.0000
  I   I99       1.0  0.01169  0.15413  0.39390  1.0000
  I   I100      1.0  0.94494  0.36829  0.47932  1.0000
  I   I101      1.0  0.70557  0.19310  0.57484  1.0000
  I   I102      1.0  0.30338  0.75310  0.24768  1.0000
  I   I103      1.0  0.00393  0.52929  0.60438  1.0000
  I   I104      1.0  0.98741  0.48643  0.65783  1.0000
  I   I105      1.0  0.27384  0.00925  0.75988  1.0000
  I   I106      1.0  0.11376  0.53656  0.09550  1.0000
  I   I107      1.0  0.07057  0.54871  0.59236  1.0000
  I   I108      1.0  0.05916  0.62001  0.07312  1.0000
  I   I109      1.0  0.78203  0.94284  0.46322  1.0000
  I   I110      1.0  0.84865  0.14020  0.53432  1.0000
  I   I111      1.0  0.97632  0.94531  0.75902  1.0000
  I   I112      1.0  0.57231  0.82621  0.76416  1.0000
  I   I113      1.0  0.75858  0.02967  0.88304  1.0000
  I   I114      1.0  0.30326  0.01891  0.53518  1.0000
  I   I115      1.0  0.48532  0.84733  0.51019  1.0000
  I   I116      1.0  0.48965  0.78898  0.42978  1.0000
  I   I117      1.0  0.52997  0.64532  0.77566  1.0000
  I   I118      1.0  0.58508  0.88279  0.42889  1.0000
  I   I119      1.0  0.36885  0.89480  0.17419  1.0000
  I   I120      1.0  0.35821  0.42043  0.79561  1.0000
  I   I121      1.0  0.76084  0.14596  0.88225  1.0000
  I   I122      1.0  0.40355  0.02043  0.30266  1.0000
  I   I123      1.0  0.31317  0.76153  0.88895  1.0000
  I   I124      1.0  0.39454  0.89159  0.79527  1.0000
  I   I125      1.0  0.63281  0.73422  0.00047  1.0000
  I   I126      1.0  0.06016  0.76130  0.45072  1.0000
  I   I127      1.0  0.19342  0.89631  0.62090  1.0000
  I   I128      1.0  0.96969  0.39605  0.40788  1.0000
  I   I129      1.0  0.13122  0.12840  0.59211  1.0000
  I   I130      1.0  0.14367  0.10692  0.09028  1.0000
  I   I131      1.0  0.37674  0.29994  0.34455  1.0000
  I   I132      1.0  0.71981  0.52762  0.59945  1.0000
  I   I133      1.0  0.09014  0.45644  0.26149  1.0000
  I   I134      1.0  0.39829  0.54121  0.19764  1.0000
  I   I135      1.0  0.43596  0.17603  0.88236  1.0000
  I   I136      1.0  0.16242  0.98531  0.47823  1.0000
  I   I137      1.0  0.68906  0.14930  0.29381  1.0000
  I   I138      1.0  0.45111  0.28797  0.54680  1.0000
  I   I139      1.0  0.21743  0.63963  0.73326  1.0000
  I   I140      1.0  0.34880  0.64686  0.02208  1.0000
  I   I141      1.0  0.08517  0.77001  0.98960  1.0000
  I   I142      1.0  0.77720  0.01302  0.37045  1.0000
  I   I143      1.0  0.81269  0.33428  0.43181  1.0000
  I   I144      1.0  0.37167  0.57594  0.73985  1.0000
  I   I145      1.0  0.07078  0.82843  0.88417  1.0000
  I   I146      1.0  0.03120  0.12307  0.27932  1.0000
  I   I147      1.0  0.44524  0.94899  0.65764  1.0000
  I   I148      1.0  0.72799  0.13114  0.53549  1.0000
  I   I149      1.0  0.33806  0.78423  0.25829  1.0000
  I   I150      1.0  0.68664  0.96683  0.08421  1.0000
  I   I151      1.0  0.05361  0.48361  0.54034  1.0000
  I   I152      1.0  0.17992  0.71962  0.51094  1.0000
  I   I153      1.0  0.35745  0.04633  0.75808  1.0000
  I   I154      1.0  0.34485  0.92557  0.07272  1.0000
  I   I155      1.0  0.22520  0.40717  0.45462  1.0000
  I   I156      1.0  0.06069  0.61426  0.91803  1.0000
  I   I157      1.0  0.81173  0.90557  0.35484  1.0000
  I   I158      1.0  0.94868  0.97809  0.63037  1.0000
  I   I159      1.0  0.84945  0.82225  0.50651  1.0000
  I   I160      1.0  0.47161  0.87106  0.70260  1.0000
  I   I161      1.0  0.32782  0.96032  0.48197  1.0000
  I   I162      1.0  0.52644  0.81019  0.72147  1.0000
  I   I163      1.0  0.51517  0.65009  0.67321  1.0000
  I   I164      1.0  0.58462  0.64069  0.75468  1.0000
  I   I165      1.0  0.23741  0.62805  0.45416  1.0000
  I   I166      1.0  0.59372  0.93720  0.38295  1.0000
  I   I167      1.0  0.31052  0.15005  0.35574  1.0000
  I   I168      1.0  0.35484  0.70225  0.64988  1.0000
  I   I169      1.0  0.49467  0.97286  0.30008  1.0000
  I   I170      1.0  0.50809  0.99729  0.40429  1.0000
  I   I171      1.0  0.76340  0.17858  0.95394  1.0000
  I   I172      1.0  0.34824  0.86152  0.85313  1.0000
  I   I173      1.0  0.02226  0.72527  0.38038  1.0000
  I   I174      1.0  0.36598  0.90146  0.88642  1.0000
  I   I175      1.0  0.19830  0.36865  0.17733  1.0000
  I   I176      1.0  0.14640  0.14744  0.67584  1.0000
  I   I177      1.0  0.64869  0.59215  0.16160  1.0000
  I   I178      1.0  0.43614  0.26271  0.42847  1.0000
  I   I179      1.0  0.78086  0.52088  0.63261  1.0000
  I   I180      1.0  0.13918  0.14359  0.19088  1.0000
  I   I181      1.0  0.10979  0.21910  0.52530  1.0000
  I   I182      1.0  0.44180  0.22319  0.83409  1.0000
  I   I183      1.0  0.14860  0.51550  0.35421  1.0000
  I   I184      1.0  0.63858  0.13024  0.24084  1.0000
  I   I185      1.0  0.39819  0.32094  0.64167  1.0000
  I   I186      1.0  0.20931  0.95735  0.62355  1.0000
  I   I187      1.0  0.33956  0.70965  0.04883  1.0000
  I   I188      1.0  0.70683  0.82132  0.21351  1.0000
  I   I189      1.0  0.15647  0.42261  0.21547  1.0000
  I   I190      1.0  0.81887  0.38446  0.37418  1.0000
  I   I191      1.0  0.13565  0.30341  0.88642  1.0000
  I   I192      1.0  0.84676  0.02587  0.30859  1.0000
  I   I193      1.0  0.10788  0.74454  0.31800  1.0000
  I   I194      1.0  0.13125  0.30435  0.00709  1.0000
  I   I195      1.0  0.48135  0.97137  0.59451  1.0000
  I   I196      1.0  0.97490  0.35831  0.32578  1.0000
  I   I197      1.0  0.61497  0.31457  0.69475  1.0000
  I   I198      1.0  0.66760  0.98277  0.19510  1.0000
  I   I199      1.0  0.95596  0.55269  0.65989  1.0000
  I   I200      1.0  0.73793  0.36786  0.03315  1.0000
  I   I201      1.0  0.24357  0.07445  0.79297  1.0000
  I   I202      1.0  0.54911  0.32628  0.82394  1.0000
  I   I203      1.0  0.22457  0.81504  0.88975  1.0000
  I   I204      1.0  0.02078  0.61474  0.99565  1.0000
  I   I205      1.0  0.87854  0.14539  0.62972  1.0000
  I   I206      1.0  0.89435  0.01752  0.59855  1.0000
  I   I207      1.0  0.89215  0.84457  0.50983  1.0000
  I   I208      1.0  0.04810  0.62427  0.51294  1.0000
  I   I209      1.0  0.25092  0.02811  0.49785  1.0000
  I   I210      1.0  0.46789  0.81880  0.73175  1.0000
  I   I211      1.0  0.49162  0.84347  0.37835  1.0000
  I   I212      1.0  0.35078  0.14507  0.56450  1.0000
  I   I213      1.0  0.22339  0.87541  0.85717  1.0000
  I   I214      1.0  0.64681  0.87602  0.38997  1.0000
  I   I215      1.0  0.34569  0.16919  0.41202  1.0000
  I   I216      1.0  0.29920  0.74137  0.61249  1.0000
  I   I217      1.0  0.44880  0.00276  0.21718  1.0000
  I   I218      1.0  0.28639  0.84172  0.83214  1.0000
  I   I219      1.0  0.70516  0.20220  0.92351  1.0000
  I   I220      1.0  0.61061  0.75007  0.19493  1.0000
  I   I221      1.0  0.03464  0.78340  0.36117  1.0000
  I   I222      1.0  0.42785  0.92808  0.80988  1.0000
  I   I223      1.0  0.17436  0.39185  0.08495  1.0000
  I   I224      1.0  0.08051  0.17003  0.72300  1.0000
  I   I225      1.0  0.20515  0.87520  0.48497  1.0000
  I   I226      1.0  0.43995  0.22659  0.31033  1.0000
  I   I227      1.0  0.72292  0.58776  0.65833  1.0000
  I   I228      1.0  0.13422  0.19022  0.12945  1.0000
  I   I229      1.0  0.05453  0.31690  0.50778  1.0000
  I   I230      1.0  0.40982  0.47579  0.15956  1.0000
  I   I231      1.0  0.02818  0.50838  0.24673  1.0000
  I   I232      1.0  0.88099  0.04052  0.71536  1.0000
  I   I233      1.0  0.38554  0.36544  0.57749  1.0000
  I   I234      1.0  0.11504  0.04262  0.51694  1.0000
  I   I235      1.0  0.29948  0.99836  0.04393  1.0000
  I   I236      1.0  0.07302  0.79292  0.12097  1.0000
  I   I237      1.0  0.16464  0.67629  0.67214  1.0000
  I   I238      1.0  0.71049  0.46508  0.63028  1.0000
  I   I239      1.0  0.39646  0.52148  0.68638  1.0000
  I   I240      1.0  0.80629  0.98403  0.28760  1.0000
  I   I241      1.0  0.04991  0.11818  0.48355  1.0000
  I   I242      1.0  0.97458  0.18188  0.25389  1.0000
  I   I243      1.0  0.44755  0.00645  0.70770  1.0000
  I   I244      1.0  0.69614  0.14346  0.64170  1.0000
  I   I245      1.0  0.39682  0.71386  0.56000  1.0000
  I   I246      1.0  0.74226  0.94880  0.13381  1.0000
  I   I247      1.0  0.99943  0.48520  0.51715  1.0000
  I   I248      1.0  0.23587  0.67279  0.40230  1.0000
  I   I249      1.0  0.30532  0.10094  0.74970  1.0000
  I   I250      1.0  0.49317  0.32706  0.92252  1.0000
  I   I251      1.0  0.22305  0.35392  0.41585  1.0000
  I   I252      1.0  0.04803  0.56282  0.12283  1.0000
  I   I253      1.0  0.78960  0.16257  0.48398  1.0000
  I   I254      1.0  0.90694  0.98492  0.71230  1.0000
  I   I255      1.0  0.82593  0.88820  0.54945  1.0000
  I   I256      1.0  0.75945  0.07443  0.77752  1.0000
  I   I257      1.0  0.27969  0.96358  0.54671  1.0000
  I   I258      1.0  0.58074  0.75747  0.76569  1.0000
  I   I259      1.0  0.53847  0.80490  0.45097  1.0000
  I   I260      1.0  0.54940  0.67889  0.67997  1.0000
  I   I261      1.0  0.20976  0.74245  0.41134  1.0000
  I   I262      1.0  0.58972  0.88595  0.31256  1.0000
  I   I263      1.0  0.38849  0.11206  0.37678  1.0000
  I   I264      1.0  0.32581  0.67484  0.67907  1.0000
  I   I265      1.0  0.46420  0.02965  0.31455  1.0000
  I   I266      1.0  0.22961  0.86754  0.98643  1.0000
  I   I267      1.0  0.82563  0.13221  0.95645  1.0000
  I   I268      1.0  0.65694  0.68112  0.23950  1.0000
  I   I269      1.0  0.01622  0.75073  0.47965  1.0000
  I   I270      1.0  0.41545  0.83789  0.89205  1.0000
  I   I271      1.0  0.23734  0.38253  0.13938  1.0000
  I   I272      1.0  0.02195  0.20564  0.75874  1.0000
  I   I273      1.0  0.22213  0.84223  0.57237  1.0000
  I   I274      1.0  0.38400  0.30996  0.23608  1.0000
  I   I275      1.0  0.71172  0.57602  0.54863  1.0000
  I   I276      1.0  0.11423  0.15568  0.04446  1.0000
  I   I277      1.0  0.39714  0.24241  0.39037  1.0000
  I   I278      1.0  0.36059  0.49976  0.24883  1.0000
  I   I279      1.0  0.09023  0.52367  0.34813  1.0000
  I   I280      1.0  0.61842  0.17162  0.34309  1.0000
  I   I281      1.0  0.33111  0.35442  0.50101  1.0000
  I   I282      1.0  0.16650  0.02526  0.60754  1.0000
  I   I283      1.0  0.27301  0.96442  0.08338  1.0000
  I   I284      1.0  0.12676  0.72621  0.05572  1.0000
  I   I285      1.0  0.21258  0.42523  0.26151  1.0000
  I   I286      1.0  0.73846  0.46009  0.51398  1.0000
  I   I287      1.0  0.34635  0.60610  0.64172  1.0000
  I   I288      1.0  0.74620  0.99913  0.25108  1.0000
  I   I289      1.0  0.01176  0.12520  0.55372  1.0000
  I   I290      1.0  0.14309  0.34721  0.94358  1.0000
  I   I291      1.0  0.02354  0.19052  0.27963  1.0000
  I   I292      1.0  0.74968  0.15080  0.65298  1.0000
  I   I293      1.0  0.34342  0.77106  0.52663  1.0000
  I   I294      1.0  0.77799  0.97399  0.01421  1.0000
  I   I295      1.0  0.92483  0.52681  0.61604  1.0000
  I   I296      1.0  0.80638  0.34806  0.08646  1.0000
  I   I297      1.0  0.29169  0.04514  0.70995  1.0000
  I   I298      1.0  0.65688  0.33800  0.67161  1.0000
  I   I299      1.0  0.07862  0.56266  0.48667  1.0000
  I   I300      1.0  0.07135  0.57014  0.00491  1.0000
  I   I301      1.0  0.80116  0.88143  0.45901  1.0000
  I   I302      1.0  0.80561  0.18248  0.59508  1.0000
  I   I303      1.0  0.15400  0.43451  0.77606  1.0000
  I   I304      1.0  0.49788  0.86564  0.80571  1.0000
  I   I305      1.0  0.10112  0.63723  0.53986  1.0000
  I   I306      1.0  0.38671  0.21478  0.81891  1.0000
  I   I307      1.0  0.58802  0.63532  0.61209  1.0000
  I   I308      1.0  0.30151  0.17026  0.64998  1.0000
  I   I309      1.0  0.25669  0.64817  0.54738  1.0000
  I   I310      1.0  0.31404  0.98651  0.17515  1.0000
  I   I311      1.0  0.41773  0.13895  0.33419  1.0000
  I   I312      1.0  0.30112  0.42680  0.72917  1.0000
  I   I313      1.0  0.74110  0.18663  0.80185  1.0000
  I   I314      1.0  0.44700  0.96342  0.31818  1.0000
  I   I315      1.0  0.33930  0.80414  0.91357  1.0000
  I   I316      1.0  0.40042  0.82497  0.80401  1.0000
  I   I317      1.0  0.61748  0.68543  0.00771  1.0000
  I   I318      1.0  0.06932  0.69645  0.48325  1.0000
  I   I319      1.0  0.61728  0.55360  0.16646  1.0000
  I   I320      1.0  0.98130  0.31562  0.42362  1.0000
  I   I321      1.0  0.04968  0.21592  0.64608  1.0000
  I   I322      1.0  0.39299  0.24442  0.25324  1.0000
  I   I323      1.0  0.69456  0.53295  0.48920  1.0000
  I   I324      1.0  0.16732  0.06476  0.21679  1.0000
  I   I325      1.0  0.03097  0.31399  0.40950  1.0000
  I   I326      1.0  0.44261  0.19536  0.97969  1.0000
  I   I327      1.0  0.12956  0.47262  0.31302  1.0000
  I   I328      1.0  0.15985  0.42111  0.64576  1.0000
  I   I329      1.0  0.39600  0.32340  0.51676  1.0000
  I   I330      1.0  0.20785  0.98258  0.52837  1.0000
  I   I331      1.0  0.16891  0.41739  0.33051  1.0000
  I   I332      1.0  0.63781  0.31498  0.58045  1.0000
  I   I333      1.0  0.69959  0.76989  0.28125  1.0000
  I   I334      1.0  0.84100  0.97794  0.36902  1.0000
  I   I335      1.0  0.80696  0.38822  0.48905  1.0000
  I   I336      1.0  0.40445  0.56725  0.61706  1.0000
  I   I337      1.0  0.07371  0.81257  0.77902  1.0000
  I   I338      1.0  0.08003  0.35654  0.91938  1.0000
  I   I339      1.0  0.97743  0.14213  0.33225  1.0000
  I   I340      1.0  0.92297  0.31312  0.35484  1.0000
  I   I341      1.0  0.38231  0.71836  0.25025  1.0000
  I   I342      1.0  0.82477  0.96928  0.10664  1.0000
  I   I343      1.0  0.01124  0.55009  0.48080  1.0000
  I   I344      1.0  0.79255  0.32699  0.96671  1.0000
  I   I345      1.0  0.31201  0.05314  0.80990  1.0000
  I   I346      1.0  0.30551  0.93389  0.16034  1.0000
  I   I347      1.0  0.52640  0.28328  0.83556  1.0000
  I   I348      1.0  0.08997  0.58443  0.17527  1.0000
  I   I349      1.0  0.85409  0.85992  0.41545  1.0000
  I   I350      1.0  0.82693  0.18491  0.43728  1.0000
  I   I351      1.0  0.94149  0.01141  0.78326  1.0000
  I   I352      1.0  0.57339  0.78637  0.85679  1.0000
  I   I353      1.0  0.82092  0.02700  0.83052  1.0000
  I   I354      1.0  0.38757  0.21418  0.02864  1.0000
  I   I355      1.0  0.51638  0.66942  0.56907  1.0000
  I   I356      1.0  0.57205  0.59498  0.71120  1.0000
  I   I357      1.0  0.21401  0.81346  0.00223  1.0000
  I   I358      1.0  0.30681  0.68382  0.56204  1.0000
  I   I359      1.0  0.36709  0.11242  0.28432  1.0000
  I   I360      1.0  0.34023  0.36846  0.72368  1.0000
  I   I361      1.0  0.73303  0.23508  0.87689  1.0000
  I   I362      1.0  0.54717  0.97551  0.28994  1.0000
  I   I363      1.0  0.23293  0.84130  0.07494  1.0000
  I   I364      1.0  0.42959  0.88891  0.90272  1.0000
  I   I365      1.0  0.67628  0.70906  0.15669  1.0000
  I   I366      1.0  0.09216  0.78493  0.39726  1.0000
  I   I367      1.0  0.60056  0.60929  0.24451  1.0000
  I   I368      1.0  0.98159  0.29554  0.29953  1.0000
  I   I369      1.0  0.99945  0.19564  0.67250  1.0000
  I   I370      1.0  0.33467  0.28244  0.30587  1.0000
  I   I371      1.0  0.64505  0.57675  0.51957  1.0000
  I   I372      1.0  0.17785  0.14755  0.07833  1.0000
  I   I373      1.0  0.05141  0.21814  0.51069  1.0000
  I   I374      1.0  0.35407  0.53001  0.15386  1.0000
  I   I375      1.0  0.11871  0.54876  0.26361  1.0000
  I   I376      1.0  0.63424  0.18314  0.22590  1.0000
  I   I377      1.0  0.35767  0.38834  0.44344  1.0000
  I   I378      1.0  0.14147  0.99120  0.58824  1.0000
  I   I379      1.0  0.20017  0.71138  0.73936  1.0000
  I   I380      1.0  0.30836  0.70839  0.94444  1.0000
  I   I381      1.0  0.12185  0.78742  0.05581  1.0000
  I   I382      1.0  0.78683  0.04029  0.24866  1.0000
  I   I383      1.0  0.76758  0.42407  0.64255  1.0000
  I   I384      1.0  0.41857  0.60759  0.58609  1.0000
