data_image0
_chemical_formula_structural       Ti96I384
_chemical_formula_sum              "Ti96 I384"
_cell_length_a       71.0473
_cell_length_b       70.9027
_cell_length_c       34.7069
_cell_angle_alpha    88.7757
_cell_angle_beta     88.7757
_cell_angle_gamma    62.1586

_space_group_name_H-M_alt    "P 1"
_space_group_IT_number       1

loop_
  _space_group_symop_operation_xyz
  'x, y, z'

loop_
  _atom_site_type_symbol
  _atom_site_label
  _atom_site_symmetry_multiplicity
  _atom_site_fract_x
  _atom_site_fract_y
  _atom_site_fract_z
  _atom_site_occupancy
  Ti  Ti1       1.0  0.17132  0.89802  0.22766  1.0000
  Ti  Ti2       1.0  0.04343  0.04504  0.99547  1.0000
  Ti  Ti3       1.0  0.30826  0.09862  0.27839  1.0000
  Ti  Ti4       1.0  0.05717  0.55900  0.70564  1.0000
  Ti  Ti5       1.0  0.45763  0.42070  0.18418  1.0000
  Ti  Ti6       1.0  0.87421  0.78856  0.30771  1.0000
  Ti  Ti7       1.0  0.59807  0.98604  0.55246  1.0000
  Ti  Ti8       1.0  0.18013  0.54255  0.48115  1.0000
  Ti  Ti9       1.0  0.43603  0.18493  0.11105  1.0000
  Ti  Ti10      1.0  0.51094  0.47580  0.82251  1.0000
  Ti  Ti11      1.0  0.17182  0.48724  0.80581  1.0000
  Ti  Ti12      1.0  0.92515  0.70265  0.56832  1.0000
  Ti  Ti13      1.0  0.73282  0.51499  0.90295  1.0000
  Ti  Ti14      1.0  0.01074  0.90747  0.85150  1.0000
  Ti  Ti15      1.0  0.59719  0.61668  0.73182  1.0000
  Ti  Ti16      1.0  0.49502  0.47181  0.74978  1.0000
  Ti  Ti17      1.0  0.24626  0.60383  0.62351  1.0000
  Ti  Ti18      1.0  0.43818  0.00385  0.56954  1.0000
  Ti  Ti19      1.0  0.37831  0.57807  0.37992  1.0000
  Ti  Ti20      1.0  0.98853  0.91159  0.56646  1.0000
  Ti  Ti21      1.0  0.16748  0.50191  0.51801  1.0000
  Ti  Ti22      1.0  0.67395  0.72132  0.41062  1.0000
  Ti  Ti23      1.0  0.14829  0.07065  0.25936  1.0000
  Ti  Ti24      1.0  0.01348  0.82674  0.42977  1.0000
  Ti  Ti25      1.0  0.38636  0.34007  0.43695  1.0000
  Ti  Ti26      1.0  0.74601  0.95437  0.85579  1.0000
  Ti  Ti27      1.0  0.78648  0.14224  0.24765  1.0000
  Ti  Ti28      1.0  0.36919  0.96414  0.77143  1.0000
  Ti  Ti29      1.0  0.11765  0.80261  0.83379  1.0000
  Ti  Ti30      1.0  0.30085  0.89608  0.74925  1.0000
  Ti  Ti31      1.0  0.79723  0.99754  0.34173  1.0000
  Ti  Ti32      1.0  0.34544  0.88977  0.22500  1.0000
  Ti  Ti33      1.0  0.25384  0.62333  0.95858  1.0000
  Ti  Ti34      1.0  0.60052  0.50835  0.76595  1.0000
  Ti  Ti35      1.0  0.07926  0.33012  0.76065  1.0000
  Ti  Ti36      1.0  0.96967  0.23118  0.83852  1.0000
  Ti  Ti37      1.0  0.24907  0.08386  0.59728  1.0000
  Ti  Ti38      1.0  0.88658  0.17847  0.33935  1.0000
  Ti  Ti39      1.0  0.67648  0.59792  0.25854  1.0000
  Ti  Ti40      1.0  0.48226  0.64095  0.62738  1.0000
  Ti  Ti41      1.0  0.56265  0.14518  0.64413  1.0000
  Ti  Ti42      1.0  0.08054  0.84200  0.17440  1.0000
  Ti  Ti43      1.0  0.09979  0.99980  0.78443  1.0000
  Ti  Ti44      1.0  0.58350  0.11230  0.69031  1.0000
  Ti  Ti45      1.0  0.10070  0.33009  0.07766  1.0000
  Ti  Ti46      1.0  0.33499  0.89437  0.56275  1.0000
  Ti  Ti47      1.0  0.76185  0.13322  0.65912  1.0000
  Ti  Ti48      1.0  0.89484  0.00402  0.26714  1.0000
  Ti  Ti49      1.0  0.16283  0.01474  0.09053  1.0000
  Ti  Ti50      1.0  0.45598  0.41522  0.98216  1.0000
  Ti  Ti51      1.0  0.99366  0.04050  0.02555  1.0000
  Ti  Ti52      1.0  0.58315  0.35512  0.21023  1.0000
  Ti  Ti53      1.0  0.41288  0.69648  0.35477  1.0000
  Ti  Ti54      1.0  0.91497  0.80928  0.79138  1.0000
  Ti  Ti55      1.0  0.63850  0.95824  0.64108  1.0000
  Ti  Ti56      1.0  0.35302  0.38717  0.15823  1.0000
  Ti  Ti57      1.0  0.46661  0.13427  0.99423  1.0000
  Ti  Ti58      1.0  0.59375  0.43367  0.45614  1.0000
  Ti  Ti59      1.0  0.83154  0.12290  0.97536  1.0000
  Ti  Ti60      1.0  0.91599  0.66173  0.50050  1.0000
  Ti  Ti61      1.0  0.65128  0.61656  0.66153  1.0000
  Ti  Ti62      1.0  0.75941  0.46250  0.82794  1.0000
  Ti  Ti63      1.0  0.62366  0.00335  0.16866  1.0000
  Ti  Ti64      1.0  0.42097  0.96818  0.55587  1.0000
  Ti  Ti65      1.0  0.93274  0.77668  0.07788  1.0000
  Ti  Ti66      1.0  0.61330  0.30184  0.89087  1.0000
  Ti  Ti67      1.0  0.80572  0.73389  0.98917  1.0000
  Ti  Ti68      1.0  0.42778  0.52165  0.33719  1.0000
  Ti  Ti69      1.0  0.77184  0.90611  0.76246  1.0000
  Ti  Ti70      1.0  0.75246  0.76337  0.94934  1.0000
  Ti  Ti71      1.0  0.20443  0.07015  0.17901  1.0000
  Ti  Ti72      1.0  0.74454  0.17286  0.70227  1.0000
  Ti  Ti73      1.0  0.76754  0.19672  0.17824  1.0000
  Ti  Ti74      1.0  0.41121  0.30990  0.52962  1.0000
  Ti  Ti75      1.0  0.51299  0.97068  0.11187  1.0000
  Ti  Ti76      1.0  0.24855  0.97730  0.78463  1.0000
  Ti  Ti77      1.0  0.35150  0.21736  0.69520  1.0000
  Ti  Ti78      1.0  0.13284  0.75419  0.80531  1.0000
  Ti  Ti79      1.0  0.68490  0.68831  0.99033  1.0000
  Ti  Ti80      1.0  0.93478  0.26760  0.39299  1.0000
  Ti  Ti81      1.0  0.35631  0.91810  0.14847  1.0000
  Ti  Ti82      1.0  0.30262  0.26664  0.06320  1.0000
  Ti  Ti83      1.0  0.06552  0.36966  0.85355  1.0000
  Ti  Ti84      1.0  0.00523  0.21306  0.89677  1.0000
  Ti  Ti85      1.0  0.23159  0.05660  0.56086  1.0000
  Ti  Ti86      1.0  0.62975  0.25758  0.94358  1.0000
  Ti  Ti87      1.0  0.13469  0.28230  0.13139  1.0000
  Ti  Ti88      1.0  0.59498  0.34230  0.31919  1.0000
  Ti  Ti89      1.0  0.48439  0.31423  0.27019  1.0000
  Ti  Ti90      1.0  0.08665  0.82558  0.07904  1.0000
  Ti  Ti91      1.0  0.29548  0.52606  0.34645  1.0000
  Ti  Ti92      1.0  0.32195  0.74404  0.77260  1.0000
  Ti  Ti93      1.0  0.02246  0.53628  0.07672  1.0000
  Ti  Ti94      1.0  0.88206  0.07127  0.23481  1.0000
  Ti  Ti95      1.0  0.39660  0.68961  0.07997  1.0000
  Ti  Ti96      1.0  0.95518  0.27241  0.15068  1.0000
  I   I1        1.0  0.73055  0.13444  0.70660  1.0000
  I   I2        1.0  0.00476  0.06806  0.05048  1.0000
  I   I3        1.0  0.17259  0.04429  0.04548  1.0000
  I   I4        1.0  0.42027  0.72387  0.31714  1.0000
  I   I5        1.0  0.90395  0.77252  0.25639  1.0000
  I   I6        1.0  0.95686  0.79292  0.80584  1.0000
  I   I7        1.0  0.16011  0.48548  0.59051  1.0000
  I   I8        1.0  0.38318  0.35441  0.12794  1.0000
  I   I9        1.0  0.48113  0.16132  0.97229  1.0000
  I   I10       1.0  0.45265  0.49914  0.76769  1.0000
  I   I11       1.0  0.16298  0.53019  0.79914  1.0000
  I   I12       1.0  0.49552  0.39153  0.15776  1.0000
  I   I13       1.0  0.72328  0.49497  0.83143  1.0000
  I   I14       1.0  0.61931  0.02388  0.10360  1.0000
  I   I15       1.0  0.63969  0.58581  0.69985  1.0000
  I   I16       1.0  0.51673  0.49539  0.76156  1.0000
  I   I17       1.0  0.62814  0.31676  0.82702  1.0000
  I   I18       1.0  0.45351  0.02665  0.54327  1.0000
  I   I19       1.0  0.00551  0.93642  0.55960  1.0000
  I   I20       1.0  0.15487  0.49040  0.87414  1.0000
  I   I21       1.0  0.18407  0.50402  0.44257  1.0000
  I   I22       1.0  0.14834  0.03777  0.29797  1.0000
  I   I23       1.0  0.11159  0.09221  0.29195  1.0000
  I   I24       1.0  0.83782  0.73552  0.02272  1.0000
  I   I25       1.0  0.37682  0.37044  0.48652  1.0000
  I   I26       1.0  0.54291  0.97585  0.14365  1.0000
  I   I27       1.0  0.78828  0.14496  0.32383  1.0000
  I   I28       1.0  0.40250  0.96902  0.75961  1.0000
  I   I29       1.0  0.12108  0.83611  0.80429  1.0000
  I   I30       1.0  0.31584  0.85593  0.77100  1.0000
  I   I31       1.0  0.91822  0.29837  0.34179  1.0000
  I   I32       1.0  0.33698  0.89031  0.15084  1.0000
  I   I33       1.0  0.69487  0.67483  0.06253  1.0000
  I   I34       1.0  0.05667  0.34614  0.69890  1.0000
  I   I35       1.0  0.97321  0.22744  0.96134  1.0000
  I   I36       1.0  0.60390  0.46999  0.76839  1.0000
  I   I37       1.0  0.27888  0.06998  0.65438  1.0000
  I   I38       1.0  0.69271  0.59376  0.32797  1.0000
  I   I39       1.0  0.23291  0.05950  0.64145  1.0000
  I   I40       1.0  0.56107  0.10098  0.64194  1.0000
  I   I41       1.0  0.08590  0.86127  0.10303  1.0000
  I   I42       1.0  0.49922  0.60022  0.61303  1.0000
  I   I43       1.0  0.63206  0.40961  0.44919  1.0000
  I   I44       1.0  0.60928  0.12646  0.71725  1.0000
  I   I45       1.0  0.12955  0.33939  0.05066  1.0000
  I   I46       1.0  0.40771  0.64843  0.07184  1.0000
  I   I47       1.0  0.72914  0.17790  0.63253  1.0000
  I   I48       1.0  0.90904  0.97378  0.21318  1.0000
  I   I49       1.0  0.19507  0.99683  0.14372  1.0000
  I   I50       1.0  0.99165  0.01730  0.07967  1.0000
  I   I51       1.0  0.95158  0.07088  0.01840  1.0000
  I   I52       1.0  0.90644  0.25319  0.39083  1.0000
  I   I53       1.0  0.42227  0.70201  0.42812  1.0000
  I   I54       1.0  0.91339  0.77470  0.82259  1.0000
  I   I55       1.0  0.63684  0.98526  0.54867  1.0000
  I   I56       1.0  0.20599  0.46973  0.53000  1.0000
  I   I57       1.0  0.49030  0.09757  0.02711  1.0000
  I   I58       1.0  0.52417  0.48961  0.87356  1.0000
  I   I59       1.0  0.80603  0.16490  0.96375  1.0000
  I   I60       1.0  0.92626  0.65633  0.58364  1.0000
  I   I61       1.0  0.79305  0.46824  0.84845  1.0000
  I   I62       1.0  0.69900  0.54678  0.92496  1.0000
  I   I63       1.0  0.60120  0.03137  0.22067  1.0000
  I   I64       1.0  0.47432  0.45237  0.71136  1.0000
  I   I65       1.0  0.96515  0.73907  0.09717  1.0000
  I   I66       1.0  0.58189  0.33609  0.90032  1.0000
  I   I67       1.0  0.35222  0.57835  0.33015  1.0000
  I   I68       1.0  0.95631  0.93016  0.52674  1.0000
  I   I69       1.0  0.80828  0.91313  0.76135  1.0000
  I   I70       1.0  0.75026  0.75599  0.87934  1.0000
  I   I71       1.0  0.22273  0.09088  0.21571  1.0000
  I   I72       1.0  0.79099  0.14463  0.64154  1.0000
  I   I73       1.0  0.72934  0.21317  0.15928  1.0000
  I   I74       1.0  0.71586  0.96629  0.91476  1.0000
  I   I75       1.0  0.73128  0.93785  0.78541  1.0000
  I   I76       1.0  0.36615  0.18086  0.73136  1.0000
  I   I77       1.0  0.32697  0.24741  0.74464  1.0000
  I   I78       1.0  0.18665  0.88121  0.16474  1.0000
  I   I79       1.0  0.22635  0.62790  0.01478  1.0000
  I   I80       1.0  0.80506  0.97418  0.27684  1.0000
  I   I81       1.0  0.34634  0.85106  0.24187  1.0000
  I   I82       1.0  0.27061  0.25793  0.03701  1.0000
  I   I83       1.0  0.07209  0.29420  0.76099  1.0000
  I   I84       1.0  0.97003  0.24003  0.76378  1.0000
  I   I85       1.0  0.24734  0.12527  0.59053  1.0000
  I   I86       1.0  0.59741  0.28538  0.84113  1.0000
  I   I87       1.0  0.63788  0.62425  0.27990  1.0000
  I   I88       1.0  0.47901  0.65242  0.69858  1.0000
  I   I89       1.0  0.54273  0.14988  0.72227  1.0000
  I   I90       1.0  0.11860  0.81958  0.02572  1.0000
  I   I91       1.0  0.25569  0.55098  0.34503  1.0000
  I   I92       1.0  0.35241  0.74919  0.79492  1.0000
  I   I93       1.0  0.61997  0.08404  0.64843  1.0000
  I   I94       1.0  0.88034  0.09931  0.27871  1.0000
  I   I95       1.0  0.37268  0.87885  0.53843  1.0000
  I   I96       1.0  0.93847  0.29926  0.20668  1.0000
  I   I97       1.0  0.27489  0.10268  0.24505  1.0000
  I   I98       1.0  0.20409  0.87533  0.27089  1.0000
  I   I99       1.0  0.04296  0.00800  0.03697  1.0000
  I   I100      1.0  0.05284  0.57920  0.76756  1.0000
  I   I101      1.0  0.61741  0.34274  0.16402  1.0000
  I   I102      1.0  0.46787  0.41276  0.26093  1.0000
  I   I103      1.0  0.60326  0.99936  0.61983  1.0000
  I   I104      1.0  0.66648  0.92054  0.61063  1.0000
  I   I105      1.0  0.43698  0.21454  0.05729  1.0000
  I   I106      1.0  0.91566  0.74274  0.56322  1.0000
  I   I107      1.0  0.47188  0.48936  0.86113  1.0000
  I   I108      1.0  0.95347  0.62338  0.50501  1.0000
  I   I109      1.0  0.60886  0.59211  0.79510  1.0000
  I   I110      1.0  0.74560  0.47432  0.91978  1.0000
  I   I111      1.0  0.66304  0.99528  0.17186  1.0000
  I   I112      1.0  0.46017  0.96915  0.53041  1.0000
  I   I113      1.0  0.90134  0.79980  0.12844  1.0000
  I   I114      1.0  0.20549  0.63061  0.60693  1.0000
  I   I115      1.0  0.76286  0.77003  0.02154  1.0000
  I   I116      1.0  0.81547  0.70181  0.93327  1.0000
  I   I117      1.0  0.36619  0.61675  0.39771  1.0000
  I   I118      1.0  0.64362  0.75622  0.38100  1.0000
  I   I119      1.0  0.72368  0.80850  0.94181  1.0000
  I   I120      1.0  0.70645  0.20898  0.71409  1.0000
  I   I121      1.0  0.77473  0.11168  0.24315  1.0000
  I   I122      1.0  0.34409  0.35092  0.42282  1.0000
  I   I123      1.0  0.49414  0.98895  0.05106  1.0000
  I   I124      1.0  0.26822  0.90504  0.70654  1.0000
  I   I125      1.0  0.34561  0.98903  0.82874  1.0000
  I   I126      1.0  0.08649  0.80401  0.80037  1.0000
  I   I127      1.0  0.27316  0.64047  0.99757  1.0000
  I   I128      1.0  0.03687  0.58563  0.64596  1.0000
  I   I129      1.0  0.32266  0.93108  0.20070  1.0000
  I   I130      1.0  0.04149  0.18199  0.92098  1.0000
  I   I131      1.0  0.27766  0.29211  0.11825  1.0000
  I   I132      1.0  0.07114  0.34867  0.91551  1.0000
  I   I133      1.0  0.70305  0.55649  0.22997  1.0000
  I   I134      1.0  0.88184  0.20202  0.39683  1.0000
  I   I135      1.0  0.65669  0.28226  0.90902  1.0000
  I   I136      1.0  0.06617  0.82162  0.02835  1.0000
  I   I137      1.0  0.60831  0.31744  0.38322  1.0000
  I   I138      1.0  0.49224  0.32024  0.19944  1.0000
  I   I139      1.0  0.32069  0.54358  0.36170  1.0000
  I   I140      1.0  0.32451  0.70933  0.79880  1.0000
  I   I141      1.0  0.03396  0.55681  0.12418  1.0000
  I   I142      1.0  0.91056  0.07997  0.19579  1.0000
  I   I143      1.0  0.30011  0.91310  0.51598  1.0000
  I   I144      1.0  0.93155  0.25328  0.15037  1.0000
  I   I145      1.0  0.14547  0.88595  0.25915  1.0000
  I   I146      1.0  0.04875  0.08037  0.98188  1.0000
  I   I147      1.0  0.29938  0.12713  0.33392  1.0000
  I   I148      1.0  0.56132  0.39075  0.17452  1.0000
  I   I149      1.0  0.41987  0.42862  0.16585  1.0000
  I   I150      1.0  0.87939  0.77118  0.37682  1.0000
  I   I151      1.0  0.62460  0.94303  0.69828  1.0000
  I   I152      1.0  0.15727  0.56253  0.42317  1.0000
  I   I153      1.0  0.43274  0.16779  0.02613  1.0000
  I   I154      1.0  0.13743  0.96828  0.77916  1.0000
  I   I155      1.0  0.14874  0.49965  0.73567  1.0000
  I   I156      1.0  0.92147  0.67829  0.43499  1.0000
  I   I157      1.0  0.55866  0.62595  0.71452  1.0000
  I   I158      1.0  0.60820  0.97476  0.16192  1.0000
  I   I159      1.0  0.65452  0.64728  0.62277  1.0000
  I   I160      1.0  0.44681  0.92511  0.57054  1.0000
  I   I161      1.0  0.22613  0.62904  0.68454  1.0000
  I   I162      1.0  0.39900  0.01218  0.53533  1.0000
  I   I163      1.0  0.37396  0.56664  0.45203  1.0000
  I   I164      1.0  0.46359  0.51211  0.30973  1.0000
  I   I165      1.0  0.17710  0.57920  0.50068  1.0000
  I   I166      1.0  0.65740  0.70399  0.45608  1.0000
  I   I167      1.0  0.15012  0.09383  0.19603  1.0000
  I   I168      1.0  0.05161  0.82106  0.40188  1.0000
  I   I169      1.0  0.42934  0.31710  0.45657  1.0000
  I   I170      1.0  0.37547  0.32192  0.56787  1.0000
  I   I171      1.0  0.76133  0.23022  0.21487  1.0000
  I   I172      1.0  0.21370  0.97411  0.77789  1.0000
  I   I173      1.0  0.12744  0.74984  0.88582  1.0000
  I   I174      1.0  0.28836  0.92942  0.79648  1.0000
  I   I175      1.0  0.80065  0.03205  0.33754  1.0000
  I   I176      1.0  0.39003  0.87709  0.22557  1.0000
  I   I177      1.0  0.66554  0.67026  0.95155  1.0000
  I   I178      1.0  0.32559  0.28815  0.03724  1.0000
  I   I179      1.0  0.10276  0.33476  0.83484  1.0000
  I   I180      1.0  0.99532  0.18579  0.85602  1.0000
  I   I181      1.0  0.19334  0.06416  0.53861  1.0000
  I   I182      1.0  0.60202  0.30135  0.97140  1.0000
  I   I183      1.0  0.09095  0.32206  0.00813  1.0000
  I   I184      1.0  0.60414  0.31923  0.25697  1.0000
  I   I185      1.0  0.48730  0.34770  0.28923  1.0000
  I   I186      1.0  0.06901  0.82415  0.23580  1.0000
  I   I187      1.0  0.29636  0.76689  0.82947  1.0000
  I   I188      1.0  0.59585  0.08206  0.74893  1.0000
  I   I189      1.0  0.06866  0.37001  0.06972  1.0000
  I   I190      1.0  0.34147  0.92109  0.60721  1.0000
  I   I191      1.0  0.43383  0.42613  0.04475  1.0000
  I   I192      1.0  0.87422  0.99674  0.32664  1.0000
  I   I193      1.0  0.15810  0.77241  0.83916  1.0000
  I   I194      1.0  0.49117  0.40338  0.00983  1.0000
  I   I195      1.0  0.32940  0.10721  0.22046  1.0000
  I   I196      1.0  0.05316  0.52631  0.70107  1.0000
  I   I197      1.0  0.58419  0.43772  0.52419  1.0000
  I   I198      1.0  0.88602  0.81748  0.31794  1.0000
  I   I199      1.0  0.66718  0.96257  0.68301  1.0000
  I   I200      1.0  0.34780  0.37118  0.22681  1.0000
  I   I201      1.0  0.46250  0.14548  0.13611  1.0000
  I   I202      1.0  0.86159  0.11655  0.92812  1.0000
  I   I203      1.0  0.76238  0.87591  0.75978  1.0000
  I   I204      1.0  0.89195  0.64385  0.49241  1.0000
  I   I205      1.0  0.75257  0.53115  0.84119  1.0000
  I   I206      1.0  0.02559  0.92787  0.89612  1.0000
  I   I207      1.0  0.64921  0.63089  0.73180  1.0000
  I   I208      1.0  0.55478  0.45143  0.80534  1.0000
  I   I209      1.0  0.25973  0.61236  0.55257  1.0000
  I   I210      1.0  0.68114  0.72174  0.94370  1.0000
  I   I211      1.0  0.74305  0.73347  0.97426  1.0000
  I   I212      1.0  0.97472  0.91836  0.63650  1.0000
  I   I213      1.0  0.76552  0.92144  0.69643  1.0000
  I   I214      1.0  0.68784  0.69420  0.35161  1.0000
  I   I215      1.0  0.24265  0.04482  0.15182  1.0000
  I   I216      1.0  0.98208  0.85796  0.39879  1.0000
  I   I217      1.0  0.39465  0.29678  0.45496  1.0000
  I   I218      1.0  0.48323  0.98978  0.16335  1.0000
  I   I219      1.0  0.80679  0.17118  0.23340  1.0000
  I   I220      1.0  0.33309  0.20693  0.63980  1.0000
  I   I221      1.0  0.10119  0.81966  0.89636  1.0000
  I   I222      1.0  0.26394  0.98538  0.85173  1.0000
  I   I223      1.0  0.75943  0.01253  0.36983  1.0000
  I   I224      1.0  0.34277  0.93795  0.08260  1.0000
  I   I225      1.0  0.27772  0.58342  0.94341  1.0000
  I   I226      1.0  0.33813  0.22866  0.05722  1.0000
  I   I227      1.0  0.11740  0.31858  0.73633  1.0000
  I   I228      1.0  0.02290  0.21715  0.82349  1.0000
  I   I229      1.0  0.26192  0.06244  0.53012  1.0000
  I   I230      1.0  0.88845  0.14504  0.37698  1.0000
  I   I231      1.0  0.69147  0.61814  0.21481  1.0000
  I   I232      1.0  0.97030  0.92787  0.83584  1.0000
  I   I233      1.0  0.56338  0.18065  0.61545  1.0000
  I   I234      1.0  0.11575  0.83624  0.20561  1.0000
  I   I235      1.0  0.08475  0.03349  0.73971  1.0000
  I   I236      1.0  0.02439  0.50365  0.11032  1.0000
  I   I237      1.0  0.31284  0.49177  0.30521  1.0000
  I   I238      1.0  0.35702  0.70839  0.05548  1.0000
  I   I239      1.0  0.94947  0.27122  0.07021  1.0000
  I   I240      1.0  0.84837  0.10397  0.20106  1.0000
  I   I241      1.0  0.12718  0.03672  0.12921  1.0000
  I   I242      1.0  0.08045  0.02165  0.96669  1.0000
  I   I243      1.0  0.31890  0.06528  0.31614  1.0000
  I   I244      1.0  0.55709  0.35297  0.35654  1.0000
  I   I245      1.0  0.37098  0.71884  0.36270  1.0000
  I   I246      1.0  0.83264  0.81674  0.31309  1.0000
  I   I247      1.0  0.58318  0.01897  0.49697  1.0000
  I   I248      1.0  0.22066  0.52130  0.48940  1.0000
  I   I249      1.0  0.43519  0.21197  0.16222  1.0000
  I   I250      1.0  0.84667  0.11147  0.04350  1.0000
  I   I251      1.0  0.20292  0.44983  0.78403  1.0000
  I   I252      1.0  0.89617  0.70200  0.52672  1.0000
  I   I253      1.0  0.77071  0.46563  0.74809  1.0000
  I   I254      1.0  0.02896  0.89728  0.78688  1.0000
  I   I255      1.0  0.59303  0.65490  0.75130  1.0000
  I   I256      1.0  0.91888  0.76712  0.01957  1.0000
  I   I257      1.0  0.25849  0.56355  0.62754  1.0000
  I   I258      1.0  0.39527  0.95252  0.54993  1.0000
  I   I259      1.0  0.79348  0.70959  0.03671  1.0000
  I   I260      1.0  0.43275  0.48367  0.34185  1.0000
  I   I261      1.0  0.17429  0.53513  0.55608  1.0000
  I   I262      1.0  0.70346  0.73295  0.42874  1.0000
  I   I263      1.0  0.16383  0.08531  0.31577  1.0000
  I   I264      1.0  0.99863  0.82498  0.50198  1.0000
  I   I265      1.0  0.37913  0.36488  0.37450  1.0000
  I   I266      1.0  0.77310  0.90738  0.85100  1.0000
  I   I267      1.0  0.77939  0.19832  0.11092  1.0000
  I   I268      1.0  0.37846  0.92943  0.81780  1.0000
  I   I269      1.0  0.11270  0.73584  0.77383  1.0000
  I   I270      1.0  0.26551  0.97249  0.71228  1.0000
  I   I271      1.0  0.83424  0.96606  0.36280  1.0000
  I   I272      1.0  0.39050  0.89714  0.10510  1.0000
  I   I273      1.0  0.24864  0.63292  0.88150  1.0000
  I   I274      1.0  0.56308  0.53695  0.79162  1.0000
  I   I275      1.0  0.05006  0.41285  0.85197  1.0000
  I   I276      1.0  0.97145  0.26357  0.87681  1.0000
  I   I277      1.0  0.28337  0.29540  0.99523  1.0000
  I   I278      1.0  0.84889  0.20035  0.30848  1.0000
  I   I279      1.0  0.16840  0.28956  0.13506  1.0000
  I   I280      1.0  0.58213  0.37843  0.27600  1.0000
  I   I281      1.0  0.52449  0.16164  0.61467  1.0000
  I   I282      1.0  0.05105  0.83300  0.12802  1.0000
  I   I283      1.0  0.07884  0.97994  0.76712  1.0000
  I   I284      1.0  0.98240  0.56743  0.06684  1.0000
  I   I285      1.0  0.09079  0.30322  0.11499  1.0000
  I   I286      1.0  0.41616  0.69961  0.02674  1.0000
  I   I287      1.0  0.75670  0.11601  0.60181  1.0000
  I   I288      1.0  0.91694  0.02481  0.22179  1.0000
  I   I289      1.0  0.16793  0.98267  0.04895  1.0000
  I   I290      1.0  0.45229  0.38905  0.93911  1.0000
  I   I291      1.0  0.01475  0.05432  0.94482  1.0000
  I   I292      1.0  0.55701  0.34249  0.19375  1.0000
  I   I293      1.0  0.42180  0.65489  0.35607  1.0000
  I   I294      1.0  0.90459  0.82908  0.72628  1.0000
  I   I295      1.0  0.55754  0.99203  0.53008  1.0000
  I   I296      1.0  0.36301  0.41555  0.17998  1.0000
  I   I297      1.0  0.39906  0.18629  0.12390  1.0000
  I   I298      1.0  0.56151  0.43686  0.41740  1.0000
  I   I299      1.0  0.51057  0.43552  0.79216  1.0000
  I   I300      1.0  0.95660  0.68522  0.51774  1.0000
  I   I301      1.0  0.69128  0.58625  0.66419  1.0000
  I   I302      1.0  0.76568  0.51533  0.93907  1.0000
  I   I303      1.0  0.50497  0.65242  0.58272  1.0000
  I   I304      1.0  0.46420  0.99029  0.63084  1.0000
  I   I305      1.0  0.51442  0.46270  0.67867  1.0000
  I   I306      1.0  0.65802  0.22134  0.91936  1.0000
  I   I307      1.0  0.38870  0.52392  0.36713  1.0000
  I   I308      1.0  0.02308  0.87383  0.56906  1.0000
  I   I309      1.0  0.12804  0.51467  0.50948  1.0000
  I   I310      1.0  0.10382  0.00325  0.86030  1.0000
  I   I311      1.0  0.19075  0.09296  0.11304  1.0000
  I   I312      1.0  0.79434  0.10236  0.68914  1.0000
  I   I313      1.0  0.79610  0.14252  0.17003  1.0000
  I   I314      1.0  0.43930  0.27339  0.55495  1.0000
  I   I315      1.0  0.50956  0.93390  0.10655  1.0000
  I   I316      1.0  0.22917  0.01894  0.77541  1.0000
  I   I317      1.0  0.33712  0.97291  0.72160  1.0000
  I   I318      1.0  0.16566  0.71424  0.78798  1.0000
  I   I319      1.0  0.64454  0.71454  0.00545  1.0000
  I   I320      1.0  0.09620  0.55396  0.69110  1.0000
  I   I321      1.0  0.33919  0.90609  0.29513  1.0000
  I   I322      1.0  0.59830  0.51528  0.69354  1.0000
  I   I323      1.0  0.04447  0.34696  0.81752  1.0000
  I   I324      1.0  0.01987  0.23364  0.93891  1.0000
  I   I325      1.0  0.20936  0.10847  0.57285  1.0000
  I   I326      1.0  0.59863  0.25118  0.92802  1.0000
  I   I327      1.0  0.12671  0.27645  0.20545  1.0000
  I   I328      1.0  0.44792  0.67593  0.60965  1.0000
  I   I329      1.0  0.51796  0.28503  0.29637  1.0000
  I   I330      1.0  0.05566  0.88005  0.19456  1.0000
  I   I331      1.0  0.15037  0.24328  0.11097  1.0000
  I   I332      1.0  0.58834  0.47136  0.43465  1.0000
  I   I333      1.0  0.60076  0.13071  0.60410  1.0000
  I   I334      1.0  0.91607  0.00938  0.31744  1.0000
  I   I335      1.0  0.34010  0.86435  0.61080  1.0000
  I   I336      1.0  0.99390  0.24138  0.17452  1.0000
  I   I337      1.0  0.16325  0.93619  0.25110  1.0000
  I   I338      1.0  0.44473  0.45182  0.95023  1.0000
  I   I339      1.0  0.99082  0.01450  0.97969  1.0000
  I   I340      1.0  0.97013  0.24013  0.35963  1.0000
  I   I341      1.0  0.45987  0.45706  0.17275  1.0000
  I   I342      1.0  0.89457  0.83672  0.84274  1.0000
  I   I343      1.0  0.60707  0.94895  0.58632  1.0000
  I   I344      1.0  0.32024  0.38817  0.12624  1.0000
  I   I345      1.0  0.45637  0.11893  0.93715  1.0000
  I   I346      1.0  0.79181  0.76697  0.94141  1.0000
  I   I347      1.0  0.81070  0.10492  0.94769  1.0000
  I   I348      1.0  0.91800  0.70026  0.64293  1.0000
  I   I349      1.0  0.60684  0.63030  0.65606  1.0000
  I   I350      1.0  0.75281  0.43119  0.81280  1.0000
  I   I351      1.0  0.01220  0.87604  0.88806  1.0000
  I   I352      1.0  0.40969  0.98960  0.62210  1.0000
  I   I353      1.0  0.95464  0.79583  0.07249  1.0000
  I   I354      1.0  0.62928  0.24753  0.01866  1.0000
  I   I355      1.0  0.41051  0.57546  0.33482  1.0000
  I   I356      1.0  0.43897  0.52955  0.40675  1.0000
  I   I357      1.0  0.78525  0.94975  0.87914  1.0000
  I   I358      1.0  0.01720  0.79171  0.40632  1.0000
  I   I359      1.0  0.19736  0.04098  0.21540  1.0000
  I   I360      1.0  0.76127  0.19977  0.69775  1.0000
  I   I361      1.0  0.75013  0.17346  0.23485  1.0000
  I   I362      1.0  0.42403  0.33182  0.56660  1.0000
  I   I363      1.0  0.72602  0.99365  0.83655  1.0000
  I   I364      1.0  0.32696  0.90380  0.70136  1.0000
  I   I365      1.0  0.36465  0.24252  0.66099  1.0000
  I   I366      1.0  0.13181  0.78430  0.74664  1.0000
  I   I367      1.0  0.72381  0.65889  0.96369  1.0000
  I   I368      1.0  0.94560  0.27034  0.46579  1.0000
  I   I369      1.0  0.36087  0.95283  0.17724  1.0000
  I   I370      1.0  0.63609  0.50473  0.79677  1.0000
  I   I371      1.0  0.06801  0.37684  0.76774  1.0000
  I   I372      1.0  0.93107  0.24609  0.85925  1.0000
  I   I373      1.0  0.25524  0.01528  0.55253  1.0000
  I   I374      1.0  0.92220  0.17429  0.30294  1.0000
  I   I375      1.0  0.12075  0.32383  0.15366  1.0000
  I   I376      1.0  0.63558  0.33693  0.29639  1.0000
  I   I377      1.0  0.44273  0.32565  0.26903  1.0000
  I   I378      1.0  0.11298  0.79525  0.13388  1.0000
  I   I379      1.0  0.29074  0.50913  0.41057  1.0000
  I   I380      1.0  0.30443  0.75638  0.70606  1.0000
  I   I381      1.0  0.03473  0.51563  0.01052  1.0000
  I   I382      1.0  0.86003  0.04478  0.25370  1.0000
  I   I383      1.0  0.40430  0.71368  0.12972  1.0000
  I   I384      1.0  0.76308  0.15187  0.76837  1.0000
