data_image0
_chemical_formula_structural       Ti96I384
_chemical_formula_sum              "Ti96 I384"
_cell_length_a       41.8565
_cell_length_b       41.4711
_cell_length_c       22.4086
_cell_angle_alpha    88.7757
_cell_angle_beta     88.7757
_cell_angle_gamma    62.1586

_space_group_name_H-M_alt    "P 1"
_space_group_IT_number       1

loop_
  _space_group_symop_operation_xyz
  'x, y, z'

loop_
  _atom_site_type_symbol
  _atom_site_label
  _atom_site_symmetry_multiplicity
  _atom_site_fract_x
  _atom_site_fract_y
  _atom_site_fract_z
  _atom_site_occupancy
  Ti  Ti1       1.0  0.19415  0.12350  0.04024  1.0000
  Ti  Ti2       1.0  0.13156  0.12170  0.39901  1.0000
  Ti  Ti3       1.0  0.18010  0.12815  0.72524  1.0000
  Ti  Ti4       1.0  0.23621  0.29986  0.14451  1.0000
  Ti  Ti5       1.0  0.23482  0.29637  0.47244  1.0000
  Ti  Ti6       1.0  0.24204  0.30216  0.81267  1.0000
  Ti  Ti7       1.0  0.09439  0.63862  0.38629  1.0000
  Ti  Ti8       1.0  0.10104  0.67254  0.71423  1.0000
  Ti  Ti9       1.0  0.08548  0.65021  0.04265  1.0000
  Ti  Ti10      1.0  0.16818  0.85382  0.23818  1.0000
  Ti  Ti11      1.0  0.16405  0.90493  0.58486  1.0000
  Ti  Ti12      1.0  0.15558  0.88143  0.90639  1.0000
  Ti  Ti13      1.0  0.45329  0.02875  0.28675  1.0000
  Ti  Ti14      1.0  0.46252  0.05060  0.61104  1.0000
  Ti  Ti15      1.0  0.47735  0.04997  0.97428  1.0000
  Ti  Ti16      1.0  0.35494  0.43184  0.40385  1.0000
  Ti  Ti17      1.0  0.34865  0.45961  0.72640  1.0000
  Ti  Ti18      1.0  0.34554  0.45462  0.05166  1.0000
  Ti  Ti19      1.0  0.42386  0.60365  0.50258  1.0000
  Ti  Ti20      1.0  0.38814  0.62998  0.88054  1.0000
  Ti  Ti21      1.0  0.41177  0.57785  0.19159  1.0000
  Ti  Ti22      1.0  0.43888  0.87815  0.01715  1.0000
  Ti  Ti23      1.0  0.37396  0.85096  0.37153  1.0000
  Ti  Ti24      1.0  0.45693  0.79933  0.70937  1.0000
  Ti  Ti25      1.0  0.59092  0.17485  0.30555  1.0000
  Ti  Ti26      1.0  0.60775  0.16745  0.66831  1.0000
  Ti  Ti27      1.0  0.57483  0.17972  0.00898  1.0000
  Ti  Ti28      1.0  0.66119  0.36915  0.18017  1.0000
  Ti  Ti29      1.0  0.65568  0.36445  0.50801  1.0000
  Ti  Ti30      1.0  0.65128  0.36460  0.86454  1.0000
  Ti  Ti31      1.0  0.68716  0.56403  0.02603  1.0000
  Ti  Ti32      1.0  0.72063  0.53255  0.39081  1.0000
  Ti  Ti33      1.0  0.69086  0.55775  0.68815  1.0000
  Ti  Ti34      1.0  0.67586  0.80855  0.35981  1.0000
  Ti  Ti35      1.0  0.68225  0.80898  0.70252  1.0000
  Ti  Ti36      1.0  0.68767  0.80215  0.01653  1.0000
  Ti  Ti37      1.0  0.87130  0.08466  0.27598  1.0000
  Ti  Ti38      1.0  0.86615  0.07007  0.60753  1.0000
  Ti  Ti39      1.0  0.87232  0.06012  0.93343  1.0000
  Ti  Ti40      1.0  0.91611  0.30636  0.08188  1.0000
  Ti  Ti41      1.0  0.90493  0.30825  0.42565  1.0000
  Ti  Ti42      1.0  0.90618  0.30729  0.74893  1.0000
  Ti  Ti43      1.0  0.94233  0.51644  0.32584  1.0000
  Ti  Ti44      1.0  0.90723  0.53049  0.63910  1.0000
  Ti  Ti45      1.0  0.91957  0.52330  0.00188  1.0000
  Ti  Ti46      1.0  0.83721  0.88656  0.28686  1.0000
  Ti  Ti47      1.0  0.84279  0.87586  0.63044  1.0000
  Ti  Ti48      1.0  0.82581  0.88234  0.96161  1.0000
  Ti  Ti49      1.0  0.11443  0.16819  0.90725  1.0000
  Ti  Ti50      1.0  0.06538  0.14541  0.24613  1.0000
  Ti  Ti51      1.0  0.08731  0.15773  0.58011  1.0000
  Ti  Ti52      1.0  0.17359  0.33720  0.98198  1.0000
  Ti  Ti53      1.0  0.16481  0.33068  0.31019  1.0000
  Ti  Ti54      1.0  0.17657  0.31916  0.65241  1.0000
  Ti  Ti55      1.0  0.04454  0.70935  0.22278  1.0000
  Ti  Ti56      1.0  0.03207  0.70301  0.54804  1.0000
  Ti  Ti57      1.0  0.03312  0.73349  0.87742  1.0000
  Ti  Ti58      1.0  0.08950  0.91107  0.08667  1.0000
  Ti  Ti59      1.0  0.11067  0.92887  0.39239  1.0000
  Ti  Ti60      1.0  0.08806  0.93178  0.73405  1.0000
  Ti  Ti61      1.0  0.38697  0.06823  0.11679  1.0000
  Ti  Ti62      1.0  0.38667  0.07514  0.46248  1.0000
  Ti  Ti63      1.0  0.40496  0.08657  0.80749  1.0000
  Ti  Ti64      1.0  0.27437  0.48217  0.21642  1.0000
  Ti  Ti65      1.0  0.28196  0.46532  0.56084  1.0000
  Ti  Ti66      1.0  0.26716  0.48972  0.89035  1.0000
  Ti  Ti67      1.0  0.34667  0.64729  0.35025  1.0000
  Ti  Ti68      1.0  0.31046  0.69704  0.74361  1.0000
  Ti  Ti69      1.0  0.36095  0.67692  0.06226  1.0000
  Ti  Ti70      1.0  0.41655  0.88579  0.85530  1.0000
  Ti  Ti71      1.0  0.29699  0.95848  0.33689  1.0000
  Ti  Ti72      1.0  0.38092  0.89302  0.55548  1.0000
  Ti  Ti73      1.0  0.52560  0.23795  0.16364  1.0000
  Ti  Ti74      1.0  0.55197  0.21547  0.49875  1.0000
  Ti  Ti75      1.0  0.53760  0.23981  0.83513  1.0000
  Ti  Ti76      1.0  0.58503  0.41694  0.02625  1.0000
  Ti  Ti77      1.0  0.58803  0.40949  0.35102  1.0000
  Ti  Ti78      1.0  0.60052  0.39471  0.68399  1.0000
  Ti  Ti79      1.0  0.63691  0.61712  0.85773  1.0000
  Ti  Ti80      1.0  0.65812  0.63381  0.18453  1.0000
  Ti  Ti81      1.0  0.65000  0.61792  0.53071  1.0000
  Ti  Ti82      1.0  0.62101  0.86691  0.18187  1.0000
  Ti  Ti83      1.0  0.62671  0.86391  0.53074  1.0000
  Ti  Ti84      1.0  0.61910  0.85865  0.86364  1.0000
  Ti  Ti85      1.0  0.84786  0.13444  0.10232  1.0000
  Ti  Ti86      1.0  0.81531  0.14846  0.44335  1.0000
  Ti  Ti87      1.0  0.85360  0.13168  0.76909  1.0000
  Ti  Ti88      1.0  0.86195  0.35558  0.91372  1.0000
  Ti  Ti89      1.0  0.85577  0.36136  0.25308  1.0000
  Ti  Ti90      1.0  0.83553  0.35584  0.59287  1.0000
  Ti  Ti91      1.0  0.90884  0.58628  0.15812  1.0000
  Ti  Ti92      1.0  0.90140  0.59687  0.47305  1.0000
  Ti  Ti93      1.0  0.89551  0.58505  0.81624  1.0000
  Ti  Ti94      1.0  0.77532  0.93911  0.12539  1.0000
  Ti  Ti95      1.0  0.78117  0.94242  0.46941  1.0000
  Ti  Ti96      1.0  0.76374  0.94078  0.78864  1.0000
  I   I1        1.0  0.10765  0.10845  0.15508  1.0000
  I   I2        1.0  0.07718  0.12312  0.48612  1.0000
  I   I3        1.0  0.11103  0.13066  0.80953  1.0000
  I   I4        1.0  0.18376  0.27780  0.21127  1.0000
  I   I5        1.0  0.17156  0.29390  0.52912  1.0000
  I   I6        1.0  0.17862  0.29878  0.87551  1.0000
  I   I7        1.0  0.02126  0.67499  0.44037  1.0000
  I   I8        1.0  0.02110  0.70685  0.77506  1.0000
  I   I9        1.0  0.01904  0.69507  0.11006  1.0000
  I   I10       1.0  0.09462  0.88858  0.32205  1.0000
  I   I11       1.0  0.09596  0.90135  0.62686  1.0000
  I   I12       1.0  0.09035  0.88219  0.98208  1.0000
  I   I13       1.0  0.39592  0.02699  0.35866  1.0000
  I   I14       1.0  0.40654  0.04989  0.70435  1.0000
  I   I15       1.0  0.41858  0.03334  0.01852  1.0000
  I   I16       1.0  0.30942  0.41613  0.45870  1.0000
  I   I17       1.0  0.29057  0.43914  0.80403  1.0000
  I   I18       1.0  0.28788  0.43613  0.12411  1.0000
  I   I19       1.0  0.28665  0.66877  0.66175  1.0000
  I   I20       1.0  0.32544  0.68292  0.95702  1.0000
  I   I21       1.0  0.33698  0.60416  0.26577  1.0000
  I   I22       1.0  0.23356  0.97233  0.38003  1.0000
  I   I23       1.0  0.32690  0.89451  0.47847  1.0000
  I   I24       1.0  0.38543  0.85167  0.78772  1.0000
  I   I25       1.0  0.52918  0.19955  0.39192  1.0000
  I   I26       1.0  0.53954  0.19012  0.73368  1.0000
  I   I27       1.0  0.50297  0.21266  0.05727  1.0000
  I   I28       1.0  0.59251  0.37589  0.24961  1.0000
  I   I29       1.0  0.59919  0.35714  0.57454  1.0000
  I   I30       1.0  0.58109  0.37678  0.92617  1.0000
  I   I31       1.0  0.62943  0.60471  0.10025  1.0000
  I   I32       1.0  0.64692  0.58240  0.41699  1.0000
  I   I33       1.0  0.62113  0.59289  0.74940  1.0000
  I   I34       1.0  0.61283  0.83233  0.42597  1.0000
  I   I35       1.0  0.60487  0.83180  0.76636  1.0000
  I   I36       1.0  0.61353  0.83456  0.08184  1.0000
  I   I37       1.0  0.78918  0.13733  0.33559  1.0000
  I   I38       1.0  0.80537  0.12505  0.67700  1.0000
  I   I39       1.0  0.81152  0.11460  0.00557  1.0000
  I   I40       1.0  0.84833  0.33778  0.14729  1.0000
  I   I41       1.0  0.82763  0.33551  0.47845  1.0000
  I   I42       1.0  0.83855  0.33399  0.81799  1.0000
  I   I43       1.0  0.87751  0.58909  0.36520  1.0000
  I   I44       1.0  0.85579  0.58596  0.73025  1.0000
  I   I45       1.0  0.86317  0.58260  0.07808  1.0000
  I   I46       1.0  0.76922  0.91141  0.35739  1.0000
  I   I47       1.0  0.77325  0.89307  0.69464  1.0000
  I   I48       1.0  0.75863  0.91418  0.02562  1.0000
  I   I49       1.0  0.13852  0.18969  0.00324  1.0000
  I   I50       1.0  0.05836  0.17659  0.35512  1.0000
  I   I51       1.0  0.11590  0.18436  0.66754  1.0000
  I   I52       1.0  0.18629  0.36864  0.07378  1.0000
  I   I53       1.0  0.17819  0.36435  0.40998  1.0000
  I   I54       1.0  0.18266  0.35362  0.74999  1.0000
  I   I55       1.0  0.07314  0.71014  0.33555  1.0000
  I   I56       1.0  0.05921  0.73469  0.64459  1.0000
  I   I57       1.0  0.07645  0.71973  0.97354  1.0000
  I   I58       1.0  0.13056  0.92145  0.16358  1.0000
  I   I59       1.0  0.12170  0.96981  0.51740  1.0000
  I   I60       1.0  0.10573  0.95133  0.84017  1.0000
  I   I61       1.0  0.39607  0.09695  0.22853  1.0000
  I   I62       1.0  0.40830  0.11386  0.54039  1.0000
  I   I63       1.0  0.42505  0.11445  0.91107  1.0000
  I   I64       1.0  0.29659  0.50011  0.32893  1.0000
  I   I65       1.0  0.28126  0.50652  0.65763  1.0000
  I   I66       1.0  0.28590  0.51978  0.98301  1.0000
  I   I67       1.0  0.37938  0.67203  0.44041  1.0000
  I   I68       1.0  0.36022  0.70277  0.81415  1.0000
  I   I69       1.0  0.41929  0.64764  0.13421  1.0000
  I   I70       1.0  0.44579  0.92396  0.91978  1.0000
  I   I71       1.0  0.37556  0.91726  0.33360  1.0000
  I   I72       1.0  0.44257  0.86681  0.60978  1.0000
  I   I73       1.0  0.56014  0.24793  0.26028  1.0000
  I   I74       1.0  0.57086  0.23292  0.60662  1.0000
  I   I75       1.0  0.54405  0.25390  0.95650  1.0000
  I   I76       1.0  0.60507  0.43660  0.12622  1.0000
  I   I77       1.0  0.61012  0.43524  0.46232  1.0000
  I   I78       1.0  0.60328  0.42843  0.79095  1.0000
  I   I79       1.0  0.65967  0.63707  0.96879  1.0000
  I   I80       1.0  0.70023  0.62589  0.27421  1.0000
  I   I81       1.0  0.66190  0.63638  0.63820  1.0000
  I   I82       1.0  0.64174  0.87876  0.30124  1.0000
  I   I83       1.0  0.63153  0.88448  0.63838  1.0000
  I   I84       1.0  0.64463  0.88094  0.95898  1.0000
  I   I85       1.0  0.85955  0.14947  0.22262  1.0000
  I   I86       1.0  0.86311  0.13498  0.54772  1.0000
  I   I87       1.0  0.87548  0.12812  0.88139  1.0000
  I   I88       1.0  0.87965  0.37517  0.02815  1.0000
  I   I89       1.0  0.86395  0.38264  0.36123  1.0000
  I   I90       1.0  0.86739  0.37413  0.68115  1.0000
  I   I91       1.0  0.95724  0.56280  0.25673  1.0000
  I   I92       1.0  0.92808  0.58539  0.59120  1.0000
  I   I93       1.0  0.94159  0.56993  0.92348  1.0000
  I   I94       1.0  0.80956  0.95214  0.21797  1.0000
  I   I95       1.0  0.81119  0.95014  0.57033  1.0000
  I   I96       1.0  0.79594  0.94699  0.88538  1.0000
  I   I97       1.0  0.18435  0.16103  0.82485  1.0000
  I   I98       1.0  0.20542  0.15852  0.12814  1.0000
  I   I99       1.0  0.12964  0.16718  0.49377  1.0000
  I   I100      1.0  0.22664  0.34212  0.90956  1.0000
  I   I101      1.0  0.22128  0.33743  0.24549  1.0000
  I   I102      1.0  0.22813  0.33383  0.57665  1.0000
  I   I103      1.0  0.10449  0.67833  0.14264  1.0000
  I   I104      1.0  0.10817  0.67063  0.49043  1.0000
  I   I105      1.0  0.10410  0.69805  0.82207  1.0000
  I   I106      1.0  0.14908  0.93164  0.98658  1.0000
  I   I107      1.0  0.17746  0.89414  0.32713  1.0000
  I   I108      1.0  0.15160  0.93962  0.68786  1.0000
  I   I109      1.0  0.45762  0.08668  0.07108  1.0000
  I   I110      1.0  0.45768  0.05558  0.39960  1.0000
  I   I111      1.0  0.46506  0.08729  0.71290  1.0000
  I   I112      1.0  0.31943  0.50466  0.14437  1.0000
  I   I113      1.0  0.32291  0.49106  0.50100  1.0000
  I   I114      1.0  0.32701  0.49468  0.82461  1.0000
  I   I115      1.0  0.41835  0.61253  0.28765  1.0000
  I   I116      1.0  0.42199  0.63236  0.60537  1.0000
  I   I117      1.0  0.42217  0.65255  0.97588  1.0000
  I   I118      1.0  0.47073  0.85640  0.75643  1.0000
  I   I119      1.0  0.39366  0.92162  0.10171  1.0000
  I   I120      1.0  0.42436  0.83793  0.45103  1.0000
  I   I121      1.0  0.58979  0.21319  0.09759  1.0000
  I   I122      1.0  0.61687  0.20165  0.42008  1.0000
  I   I123      1.0  0.60750  0.19347  0.79130  1.0000
  I   I124      1.0  0.64196  0.41619  0.95669  1.0000
  I   I125      1.0  0.65719  0.41370  0.26752  1.0000
  I   I126      1.0  0.66864  0.37591  0.64024  1.0000
  I   I127      1.0  0.70857  0.57687  0.80048  1.0000
  I   I128      1.0  0.72692  0.59450  0.11573  1.0000
  I   I129      1.0  0.72206  0.58186  0.48427  1.0000
  I   I130      1.0  0.68940  0.83641  0.11870  1.0000
  I   I131      1.0  0.70052  0.82048  0.47332  1.0000
  I   I132      1.0  0.69194  0.83543  0.80560  1.0000
  I   I133      1.0  0.90197  0.06332  0.04108  1.0000
  I   I134      1.0  0.87927  0.10814  0.37821  1.0000
  I   I135      1.0  0.90550  0.07210  0.70504  1.0000
  I   I136      1.0  0.92919  0.33117  0.86413  1.0000
  I   I137      1.0  0.92757  0.34063  0.18615  1.0000
  I   I138      1.0  0.90617  0.34746  0.52557  1.0000
  I   I139      1.0  0.96260  0.52027  0.08785  1.0000
  I   I140      1.0  0.96177  0.53546  0.43888  1.0000
  I   I141      1.0  0.94767  0.52556  0.74926  1.0000
  I   I142      1.0  0.84502  0.91508  0.04480  1.0000
  I   I143      1.0  0.84268  0.92549  0.39322  1.0000
  I   I144      1.0  0.84840  0.90634  0.73201  1.0000
  I   I145      1.0  0.16778  0.09838  0.94866  1.0000
  I   I146      1.0  0.11169  0.08422  0.31265  1.0000
  I   I147      1.0  0.15415  0.09587  0.63255  1.0000
  I   I148      1.0  0.23559  0.26783  0.04464  1.0000
  I   I149      1.0  0.22022  0.26931  0.36818  1.0000
  I   I150      1.0  0.23911  0.25853  0.70546  1.0000
  I   I151      1.0  0.08582  0.63281  0.26552  1.0000
  I   I152      1.0  0.07013  0.64150  0.62013  1.0000
  I   I153      1.0  0.05355  0.65558  0.93728  1.0000
  I   I154      1.0  0.13979  0.83718  0.13960  1.0000
  I   I155      1.0  0.15775  0.87477  0.47596  1.0000
  I   I156      1.0  0.13900  0.85277  0.81177  1.0000
  I   I157      1.0  0.44933  0.99486  0.18120  1.0000
  I   I158      1.0  0.44700  0.01408  0.52585  1.0000
  I   I159      1.0  0.45972  0.02353  0.85641  1.0000
  I   I160      1.0  0.35734  0.40788  0.29314  1.0000
  I   I161      1.0  0.34646  0.41192  0.63876  1.0000
  I   I162      1.0  0.33351  0.42239  0.96242  1.0000
  I   I163      1.0  0.38502  0.58271  0.41997  1.0000
  I   I164      1.0  0.33130  0.63136  0.81221  1.0000
  I   I165      1.0  0.36569  0.59618  0.09315  1.0000
  I   I166      1.0  0.47197  0.82943  0.91525  1.0000
  I   I167      1.0  0.31133  0.88684  0.30245  1.0000
  I   I168      1.0  0.41878  0.78398  0.63691  1.0000
  I   I169      1.0  0.55815  0.16200  0.21659  1.0000
  I   I170      1.0  0.59213  0.14244  0.56092  1.0000
  I   I171      1.0  0.53869  0.17749  0.90423  1.0000
  I   I172      1.0  0.63570  0.34552  0.08183  1.0000
  I   I173      1.0  0.63714  0.33861  0.40447  1.0000
  I   I174      1.0  0.63933  0.32983  0.77290  1.0000
  I   I175      1.0  0.65010  0.55359  0.93460  1.0000
  I   I176      1.0  0.70949  0.52290  0.27870  1.0000
  I   I177      1.0  0.67335  0.53751  0.57799  1.0000
  I   I178      1.0  0.64857  0.79902  0.25487  1.0000
  I   I179      1.0  0.64505  0.79676  0.60823  1.0000
  I   I180      1.0  0.66468  0.78479  0.91702  1.0000
  I   I181      1.0  0.83123  0.08523  0.17567  1.0000
  I   I182      1.0  0.81733  0.08175  0.51193  1.0000
  I   I183      1.0  0.82997  0.07860  0.83265  1.0000
  I   I184      1.0  0.89655  0.28276  0.96962  1.0000
  I   I185      1.0  0.88613  0.28736  0.32085  1.0000
  I   I186      1.0  0.87753  0.28786  0.65160  1.0000
  I   I187      1.0  0.90215  0.52778  0.21786  1.0000
  I   I188      1.0  0.87075  0.55392  0.54399  1.0000
  I   I189      1.0  0.87359  0.54701  0.90747  1.0000
  I   I190      1.0  0.81065  0.86673  0.18162  1.0000
  I   I191      1.0  0.81635  0.86521  0.52492  1.0000
  I   I192      1.0  0.79456  0.86960  0.86026  1.0000
  I   I193      1.0  0.24214  0.12752  0.97145  1.0000
  I   I194      1.0  0.17213  0.12991  0.32515  1.0000
  I   I195      1.0  0.22228  0.13383  0.64448  1.0000
  I   I196      1.0  0.29087  0.31324  0.11581  1.0000
  I   I197      1.0  0.27984  0.31967  0.42553  1.0000
  I   I198      1.0  0.29733  0.30677  0.77039  1.0000
  I   I199      1.0  0.16463  0.60517  0.36324  1.0000
  I   I200      1.0  0.16516  0.65415  0.67271  1.0000
  I   I201      1.0  0.14805  0.60892  0.99565  1.0000
  I   I202      1.0  0.23584  0.83170  0.20798  1.0000
  I   I203      1.0  0.22689  0.89815  0.55325  1.0000
  I   I204      1.0  0.21081  0.87968  0.84865  1.0000
  I   I205      1.0  0.50203  0.04554  0.23932  1.0000
  I   I206      1.0  0.50484  0.07267  0.55702  1.0000
  I   I207      1.0  0.52333  0.07040  0.92484  1.0000
  I   I208      1.0  0.40129  0.45852  0.37695  1.0000
  I   I209      1.0  0.39380  0.48531  0.68670  1.0000
  I   I210      1.0  0.40245  0.46306  0.01165  1.0000
  I   I211      1.0  0.48113  0.61208  0.46363  1.0000
  I   I212      1.0  0.43769  0.60879  0.80486  1.0000
  I   I213      1.0  0.48106  0.54000  0.16534  1.0000
  I   I214      1.0  0.50051  0.85877  0.06079  1.0000
  I   I215      1.0  0.40105  0.82647  0.26259  1.0000
  I   I216      1.0  0.52190  0.76775  0.65737  1.0000
  I   I217      1.0  0.64979  0.17506  0.25419  1.0000
  I   I218      1.0  0.66451  0.17305  0.63278  1.0000
  I   I219      1.0  0.64034  0.16055  0.94704  1.0000
  I   I220      1.0  0.71569  0.37180  0.11958  1.0000
  I   I221      1.0  0.71182  0.36941  0.46753  1.0000
  I   I222      1.0  0.70658  0.36294  0.81310  1.0000
  I   I223      1.0  0.74303  0.54328  0.95321  1.0000
  I   I224      1.0  0.78180  0.53259  0.36955  1.0000
  I   I225      1.0  0.75481  0.54120  0.65229  1.0000
  I   I226      1.0  0.73726  0.79106  0.31125  1.0000
  I   I227      1.0  0.74492  0.80318  0.65594  1.0000
  I   I228      1.0  0.74770  0.80144  0.98293  1.0000
  I   I229      1.0  0.93884  0.04701  0.23890  1.0000
  I   I230      1.0  0.91764  0.02679  0.54413  1.0000
  I   I231      1.0  0.93672  0.01653  0.89466  1.0000
  I   I232      1.0  0.97759  0.29443  0.03131  1.0000
  I   I233      1.0  0.96178  0.30374  0.36551  1.0000
  I   I234      1.0  0.96417  0.29952  0.69016  1.0000
  I   I235      1.0  0.99772  0.45639  0.29816  1.0000
  I   I236      1.0  0.96388  0.47906  0.58805  1.0000
  I   I237      1.0  0.96363  0.46247  0.94891  1.0000
  I   I238      1.0  0.89934  0.87738  0.25657  1.0000
  I   I239      1.0  0.90718  0.86424  0.60008  1.0000
  I   I240      1.0  0.88521  0.87237  0.90122  1.0000
  I   I241      1.0  0.23487  0.05247  0.07069  1.0000
  I   I242      1.0  0.18460  0.07099  0.46012  1.0000
  I   I243      1.0  0.21567  0.06466  0.77516  1.0000
  I   I244      1.0  0.27891  0.24451  0.21447  1.0000
  I   I245      1.0  0.27613  0.23399  0.51537  1.0000
  I   I246      1.0  0.27804  0.23491  0.85421  1.0000
  I   I247      1.0  0.08463  0.58256  0.41443  1.0000
  I   I248      1.0  0.11629  0.60588  0.75569  1.0000
  I   I249      1.0  0.07980  0.59395  0.08924  1.0000
  I   I250      1.0  0.17936  0.79541  0.29554  1.0000
  I   I251      1.0  0.19653  0.84261  0.64985  1.0000
  I   I252      1.0  0.19115  0.82594  0.97387  1.0000
  I   I253      1.0  0.49058  0.96469  0.33189  1.0000
  I   I254      1.0  0.50571  0.98498  0.65836  1.0000
  I   I255      1.0  0.52249  0.99007  0.01924  1.0000
  I   I256      1.0  0.41174  0.37249  0.44599  1.0000
  I   I257      1.0  0.40339  0.40095  0.77834  1.0000
  I   I258      1.0  0.38998  0.39574  0.10745  1.0000
  I   I259      1.0  0.46472  0.53464  0.50000  1.0000
  I   I260      1.0  0.40030  0.56679  0.91969  1.0000
  I   I261      1.0  0.41082  0.52184  0.23568  1.0000
  I   I262      1.0  0.43956  0.81585  0.06205  1.0000
  I   I263      1.0  0.36418  0.79448  0.40474  1.0000
  I   I264      1.0  0.46669  0.75263  0.79331  1.0000
  I   I265      1.0  0.61593  0.11339  0.36332  1.0000
  I   I266      1.0  0.62931  0.10328  0.71918  1.0000
  I   I267      1.0  0.59030  0.11803  0.05847  1.0000
  I   I268      1.0  0.69671  0.30425  0.22434  1.0000
  I   I269      1.0  0.70596  0.29312  0.52838  1.0000
  I   I270      1.0  0.68843  0.30745  0.94083  1.0000
  I   I271      1.0  0.70860  0.50161  0.07778  1.0000
  I   I272      1.0  0.72125  0.47465  0.43177  1.0000
  I   I273      1.0  0.69989  0.50016  0.74553  1.0000
  I   I274      1.0  0.69567  0.73851  0.40074  1.0000
  I   I275      1.0  0.70155  0.74520  0.74848  1.0000
  I   I276      1.0  0.71353  0.73630  0.05421  1.0000
  I   I277      1.0  0.86803  0.02502  0.31184  1.0000
  I   I278      1.0  0.85834  0.01908  0.67135  1.0000
  I   I279      1.0  0.84848  0.01852  0.98228  1.0000
  I   I280      1.0  0.93906  0.24391  0.13671  1.0000
  I   I281      1.0  0.92571  0.24824  0.48310  1.0000
  I   I282      1.0  0.93840  0.24260  0.79754  1.0000
  I   I283      1.0  0.90366  0.48820  0.37877  1.0000
  I   I284      1.0  0.88243  0.48226  0.66575  1.0000
  I   I285      1.0  0.88846  0.48862  0.05731  1.0000
  I   I286      1.0  0.86411  0.81688  0.31500  1.0000
  I   I287      1.0  0.86453  0.81186  0.68155  1.0000
  I   I288      1.0  0.85915  0.81520  0.01105  1.0000
  I   I289      1.0  0.06510  0.16094  0.97218  1.0000
  I   I290      1.0  0.00831  0.13789  0.22918  1.0000
  I   I291      1.0  0.05270  0.13639  0.66050  1.0000
  I   I292      1.0  0.14306  0.29742  0.02490  1.0000
  I   I293      1.0  0.12287  0.30155  0.34105  1.0000
  I   I294      1.0  0.14138  0.28865  0.69780  1.0000
  I   I295      1.0  0.98378  0.70957  0.26721  1.0000
  I   I296      1.0  0.97169  0.71012  0.58740  1.0000
  I   I297      1.0  0.97448  0.76253  0.93583  1.0000
  I   I298      1.0  0.03910  0.90997  0.15475  1.0000
  I   I299      1.0  0.05382  0.94991  0.46737  1.0000
  I   I300      1.0  0.03948  0.91539  0.77361  1.0000
  I   I301      1.0  0.33513  0.05392  0.14150  1.0000
  I   I302      1.0  0.33503  0.07313  0.53017  1.0000
  I   I303      1.0  0.35160  0.07856  0.86182  1.0000
  I   I304      1.0  0.24418  0.45196  0.28781  1.0000
  I   I305      1.0  0.24601  0.43298  0.61194  1.0000
  I   I306      1.0  0.22225  0.46762  0.93475  1.0000
  I   I307      1.0  0.29217  0.65722  0.42002  1.0000
  I   I308      1.0  0.25331  0.75214  0.77682  1.0000
  I   I309      1.0  0.29433  0.71132  0.10662  1.0000
  I   I310      1.0  0.36520  0.89397  0.93580  1.0000
  I   I311      1.0  0.29305  0.01270  0.40722  1.0000
  I   I312      1.0  0.32924  0.92414  0.64196  1.0000
  I   I313      1.0  0.46180  0.25033  0.20092  1.0000
  I   I314      1.0  0.49287  0.22358  0.55077  1.0000
  I   I315      1.0  0.46445  0.28302  0.82652  1.0000
  I   I316      1.0  0.52915  0.41070  0.06650  1.0000
  I   I317      1.0  0.52434  0.42188  0.38783  1.0000
  I   I318      1.0  0.54177  0.39175  0.71277  1.0000
  I   I319      1.0  0.57325  0.63039  0.90541  1.0000
  I   I320      1.0  0.61107  0.63023  0.25872  1.0000
  I   I321      1.0  0.58928  0.62508  0.57544  1.0000
  I   I322      1.0  0.55089  0.89597  0.19658  1.0000
  I   I323      1.0  0.55486  0.89330  0.54181  1.0000
  I   I324      1.0  0.55015  0.88635  0.89747  1.0000
  I   I325      1.0  0.78470  0.19184  0.10310  1.0000
  I   I326      1.0  0.75361  0.17622  0.49601  1.0000
  I   I327      1.0  0.79663  0.19108  0.80418  1.0000
  I   I328      1.0  0.79791  0.37921  0.95929  1.0000
  I   I329      1.0  0.79107  0.37722  0.29551  1.0000
  I   I330      1.0  0.77637  0.36728  0.64352  1.0000
  I   I331      1.0  0.84926  0.64810  0.18151  1.0000
  I   I332      1.0  0.84000  0.65695  0.51159  1.0000
  I   I333      1.0  0.83914  0.64751  0.85477  1.0000
  I   I334      1.0  0.71558  0.95705  0.19322  1.0000
  I   I335      1.0  0.71513  0.95653  0.50683  1.0000
  I   I336      1.0  0.70175  0.94087  0.81353  1.0000
  I   I337      1.0  0.08618  0.23297  0.86136  1.0000
  I   I338      1.0  0.03970  0.21317  0.20237  1.0000
  I   I339      1.0  0.03431  0.22246  0.56304  1.0000
  I   I340      1.0  0.11649  0.38167  0.92847  1.0000
  I   I341      1.0  0.10942  0.38391  0.27288  1.0000
  I   I342      1.0  0.11715  0.37467  0.62120  1.0000
  I   I343      1.0  0.02045  0.78025  0.22126  1.0000
  I   I344      1.0  0.00784  0.76461  0.49134  1.0000
  I   I345      1.0  0.03684  0.79278  0.85292  1.0000
  I   I346      1.0  0.05038  0.97670  0.04323  1.0000
  I   I347      1.0  0.07621  0.98922  0.34062  1.0000
  I   I348      1.0  0.04256  0.99873  0.70237  1.0000
  I   I349      1.0  0.34565  0.13338  0.07279  1.0000
  I   I350      1.0  0.34347  0.13669  0.41905  1.0000
  I   I351      1.0  0.37149  0.15661  0.76950  1.0000
  I   I352      1.0  0.21368  0.53439  0.18881  1.0000
  I   I353      1.0  0.22649  0.51004  0.49660  1.0000
  I   I354      1.0  0.22354  0.54803  0.83907  1.0000
  I   I355      1.0  0.32004  0.71231  0.29244  1.0000
  I   I356      1.0  0.33177  0.73210  0.66541  1.0000
  I   I357      1.0  0.36559  0.73680  0.07190  1.0000
  I   I358      1.0  0.37773  0.94719  0.78197  1.0000
  I   I359      1.0  0.28974  0.99146  0.23524  1.0000
  I   I360      1.0  0.37754  0.95230  0.51351  1.0000
  I   I361      1.0  0.50630  0.30634  0.13836  1.0000
  I   I362      1.0  0.52646  0.28424  0.46734  1.0000
  I   I363      1.0  0.55038  0.29443  0.80466  1.0000
  I   I364      1.0  0.54399  0.48361  0.98076  1.0000
  I   I365      1.0  0.56569  0.47815  0.31671  1.0000
  I   I366      1.0  0.57470  0.45954  0.63236  1.0000
  I   I367      1.0  0.62262  0.68286  0.82039  1.0000
  I   I368      1.0  0.62685  0.70775  0.17175  1.0000
  I   I369      1.0  0.62468  0.67737  0.47071  1.0000
  I   I370      1.0  0.61141  0.92924  0.14422  1.0000
  I   I371      1.0  0.63647  0.91491  0.47126  1.0000
  I   I372      1.0  0.59613  0.92582  0.81115  1.0000
  I   I373      1.0  0.88043  0.16544  0.05227  1.0000
  I   I374      1.0  0.81161  0.21263  0.40233  1.0000
  I   I375      1.0  0.89067  0.16486  0.73150  1.0000
  I   I376      1.0  0.85440  0.41838  0.86657  1.0000
  I   I377      1.0  0.83199  0.42963  0.21160  1.0000
  I   I378      1.0  0.80327  0.42630  0.55642  1.0000
  I   I379      1.0  0.93913  0.61672  0.09594  1.0000
  I   I380      1.0  0.92996  0.64008  0.44314  1.0000
  I   I381      1.0  0.92631  0.62204  0.76019  1.0000
  I   I382      1.0  0.74497  0.00463  0.07938  1.0000
  I   I383      1.0  0.74459  0.00738  0.42664  1.0000
  I   I384      1.0  0.73525  0.00400  0.74280  1.0000
