data_image0
_chemical_formula_structural       Ti96I384
_chemical_formula_sum              "Ti96 I384"
_cell_length_a       80.6428
_cell_length_b       80.0959
_cell_length_c       39.1995
_cell_angle_alpha    88.7757
_cell_angle_beta     88.7757
_cell_angle_gamma    62.1586

_space_group_name_H-M_alt    "P 1"
_space_group_IT_number       1

loop_
  _space_group_symop_operation_xyz
  'x, y, z'

loop_
  _atom_site_type_symbol
  _atom_site_label
  _atom_site_symmetry_multiplicity
  _atom_site_fract_x
  _atom_site_fract_y
  _atom_site_fract_z
  _atom_site_occupancy
  Ti  Ti1       1.0  0.75177  0.52473  0.38286  1.0000
  Ti  Ti2       1.0  0.68904  0.05553  0.59759  1.0000
  Ti  Ti3       1.0  0.93928  0.02123  0.19844  1.0000
  Ti  Ti4       1.0  0.41449  0.87583  0.94003  1.0000
  Ti  Ti5       1.0  0.92933  0.50625  0.60819  1.0000
  Ti  Ti6       1.0  0.16161  0.88412  0.60837  1.0000
  Ti  Ti7       1.0  0.34277  0.37607  0.93212  1.0000
  Ti  Ti8       1.0  0.44670  0.55346  0.07295  1.0000
  Ti  Ti9       1.0  0.01149  0.16450  0.73274  1.0000
  Ti  Ti10      1.0  0.91449  0.29309  0.07876  1.0000
  Ti  Ti11      1.0  0.29375  0.78352  0.63810  1.0000
  Ti  Ti12      1.0  0.50029  0.91609  0.42545  1.0000
  Ti  Ti13      1.0  0.57033  0.53090  0.35023  1.0000
  Ti  Ti14      1.0  0.45978  0.81539  0.93731  1.0000
  Ti  Ti15      1.0  0.67144  0.27889  0.76806  1.0000
  Ti  Ti16      1.0  0.83794  0.63326  0.98358  1.0000
  Ti  Ti17      1.0  0.55072  0.01799  0.51309  1.0000
  Ti  Ti18      1.0  0.53047  0.39931  0.47350  1.0000
  Ti  Ti19      1.0  0.70591  0.22473  0.13163  1.0000
  Ti  Ti20      1.0  0.60688  0.76882  0.41564  1.0000
  Ti  Ti21      1.0  0.36711  0.54512  0.68957  1.0000
  Ti  Ti22      1.0  0.44052  0.21813  0.02039  1.0000
  Ti  Ti23      1.0  0.41630  0.16773  0.84402  1.0000
  Ti  Ti24      1.0  0.83714  0.44381  0.54101  1.0000
  Ti  Ti25      1.0  0.94597  0.02380  0.91765  1.0000
  Ti  Ti26      1.0  0.27008  0.69356  0.24559  1.0000
  Ti  Ti27      1.0  0.91401  0.80405  0.54373  1.0000
  Ti  Ti28      1.0  0.30415  0.19610  0.03464  1.0000
  Ti  Ti29      1.0  0.95504  0.65217  0.42809  1.0000
  Ti  Ti30      1.0  0.39935  0.63307  0.74053  1.0000
  Ti  Ti31      1.0  0.85073  0.90249  0.37207  1.0000
  Ti  Ti32      1.0  0.08573  0.26613  0.80048  1.0000
  Ti  Ti33      1.0  0.80980  0.26699  0.35704  1.0000
  Ti  Ti34      1.0  0.64169  0.67089  0.82730  1.0000
  Ti  Ti35      1.0  0.36060  0.04283  0.00380  1.0000
  Ti  Ti36      1.0  0.17643  0.85905  0.99009  1.0000
  Ti  Ti37      1.0  0.25007  0.93918  0.00168  1.0000
  Ti  Ti38      1.0  0.50238  0.61572  0.67805  1.0000
  Ti  Ti39      1.0  0.87329  0.32494  0.01218  1.0000
  Ti  Ti40      1.0  0.53164  0.09987  0.11660  1.0000
  Ti  Ti41      1.0  0.32716  0.91810  0.56690  1.0000
  Ti  Ti42      1.0  0.38907  0.41836  0.78895  1.0000
  Ti  Ti43      1.0  0.37705  0.58582  0.23409  1.0000
  Ti  Ti44      1.0  0.41630  0.47322  0.22878  1.0000
  Ti  Ti45      1.0  0.82031  0.13396  0.26938  1.0000
  Ti  Ti46      1.0  0.61487  0.87665  0.47311  1.0000
  Ti  Ti47      1.0  0.18153  0.58812  0.56843  1.0000
  Ti  Ti48      1.0  0.45577  0.94539  0.01996  1.0000
  Ti  Ti49      1.0  0.48628  0.99783  0.31438  1.0000
  Ti  Ti50      1.0  0.14815  0.29354  0.54719  1.0000
  Ti  Ti51      1.0  0.53035  0.00531  0.84474  1.0000
  Ti  Ti52      1.0  0.83073  0.51170  0.38866  1.0000
  Ti  Ti53      1.0  0.65828  0.33036  0.86555  1.0000
  Ti  Ti54      1.0  0.77365  0.97160  0.62150  1.0000
  Ti  Ti55      1.0  0.02169  0.71828  0.06064  1.0000
  Ti  Ti56      1.0  0.74023  0.06066  0.81814  1.0000
  Ti  Ti57      1.0  0.96948  0.17156  0.76509  1.0000
  Ti  Ti58      1.0  0.99229  0.83545  0.17538  1.0000
  Ti  Ti59      1.0  0.84736  0.58738  0.97254  1.0000
  Ti  Ti60      1.0  0.73654  0.16154  0.06727  1.0000
  Ti  Ti61      1.0  0.60128  0.21312  0.35237  1.0000
  Ti  Ti62      1.0  0.54854  0.51314  0.42936  1.0000
  Ti  Ti63      1.0  0.22877  0.66723  0.56900  1.0000
  Ti  Ti64      1.0  0.55934  0.37034  0.43557  1.0000
  Ti  Ti65      1.0  0.30008  0.09787  0.48031  1.0000
  Ti  Ti66      1.0  0.17104  0.02525  0.94218  1.0000
  Ti  Ti67      1.0  0.69093  0.79320  0.70028  1.0000
  Ti  Ti68      1.0  0.16730  0.58943  0.11827  1.0000
  Ti  Ti69      1.0  0.26437  0.73484  0.20175  1.0000
  Ti  Ti70      1.0  0.16422  0.86032  0.39972  1.0000
  Ti  Ti71      1.0  0.82458  0.43799  0.07270  1.0000
  Ti  Ti72      1.0  0.31201  0.21971  0.69324  1.0000
  Ti  Ti73      1.0  0.32005  0.67415  0.44180  1.0000
  Ti  Ti74      1.0  0.90791  0.01922  0.94927  1.0000
  Ti  Ti75      1.0  0.46974  0.01376  0.23707  1.0000
  Ti  Ti76      1.0  0.69804  0.63780  0.36087  1.0000
  Ti  Ti77      1.0  0.63744  0.26458  0.70409  1.0000
  Ti  Ti78      1.0  0.96101  0.57029  0.48772  1.0000
  Ti  Ti79      1.0  0.88503  0.98582  0.56783  1.0000
  Ti  Ti80      1.0  0.13979  0.44449  0.07242  1.0000
  Ti  Ti81      1.0  0.59415  0.25491  0.88713  1.0000
  Ti  Ti82      1.0  0.39860  0.70122  0.10306  1.0000
  Ti  Ti83      1.0  0.86641  0.11389  0.20528  1.0000
  Ti  Ti84      1.0  0.19924  0.86818  0.93436  1.0000
  Ti  Ti85      1.0  0.23878  0.95476  0.06694  1.0000
  Ti  Ti86      1.0  0.31175  0.34867  0.89573  1.0000
  Ti  Ti87      1.0  0.83820  0.79396  0.77880  1.0000
  Ti  Ti88      1.0  0.74737  0.19777  0.89908  1.0000
  Ti  Ti89      1.0  0.89698  0.08289  0.74579  1.0000
  Ti  Ti90      1.0  0.56636  0.95793  0.52959  1.0000
  Ti  Ti91      1.0  0.59186  0.31643  0.27028  1.0000
  Ti  Ti92      1.0  0.76513  0.38148  0.11711  1.0000
  Ti  Ti93      1.0  0.43033  0.86631  0.65305  1.0000
  Ti  Ti94      1.0  0.48517  0.94724  0.05834  1.0000
  Ti  Ti95      1.0  0.34100  0.83025  0.88782  1.0000
  Ti  Ti96      1.0  0.03575  0.12863  0.97990  1.0000
  I   I1        1.0  0.17940  0.58959  0.50105  1.0000
  I   I2        1.0  0.54584  0.99544  0.90922  1.0000
  I   I3        1.0  0.45192  0.99901  0.28191  1.0000
  I   I4        1.0  0.63945  0.35146  0.81594  1.0000
  I   I5        1.0  0.13904  0.87805  0.64625  1.0000
  I   I6        1.0  0.78685  0.98188  0.67791  1.0000
  I   I7        1.0  0.45438  0.53891  0.13293  1.0000
  I   I8        1.0  0.72285  0.07497  0.88063  1.0000
  I   I9        1.0  0.01255  0.14321  0.79335  1.0000
  I   I10       1.0  0.53667  0.06998  0.15096  1.0000
  I   I11       1.0  0.32459  0.75252  0.66707  1.0000
  I   I12       1.0  0.89472  0.50554  0.60374  1.0000
  I   I13       1.0  0.54630  0.53809  0.29413  1.0000
  I   I14       1.0  0.21489  0.65752  0.51687  1.0000
  I   I15       1.0  0.66113  0.28280  0.69873  1.0000
  I   I16       1.0  0.53379  0.12313  0.15676  1.0000
  I   I17       1.0  0.15476  0.01261  0.98226  1.0000
  I   I18       1.0  0.58729  0.36824  0.47180  1.0000
  I   I19       1.0  0.26322  0.65373  0.59432  1.0000
  I   I20       1.0  0.30428  0.80783  0.61363  1.0000
  I   I21       1.0  0.42588  0.53639  0.06524  1.0000
  I   I22       1.0  0.61512  0.25663  0.94233  1.0000
  I   I23       1.0  0.76107  0.21574  0.86565  1.0000
  I   I24       1.0  0.13905  0.87005  0.35104  1.0000
  I   I25       1.0  0.93540  0.00347  0.87925  1.0000
  I   I26       1.0  0.48084  0.03246  0.28821  1.0000
  I   I27       1.0  0.37188  0.00713  0.01672  1.0000
  I   I28       1.0  0.29298  0.20629  0.97600  1.0000
  I   I29       1.0  0.94221  0.55128  0.50142  1.0000
  I   I30       1.0  0.42279  0.61337  0.68642  1.0000
  I   I31       1.0  0.15125  0.47071  0.06307  1.0000
  I   I32       1.0  0.56090  0.26753  0.91273  1.0000
  I   I33       1.0  0.85787  0.00061  0.61752  1.0000
  I   I34       1.0  0.39148  0.03892  0.98163  1.0000
  I   I35       1.0  0.22811  0.84215  0.89890  1.0000
  I   I36       1.0  0.67811  0.66443  0.83943  1.0000
  I   I37       1.0  0.25344  0.94574  0.93123  1.0000
  I   I38       1.0  0.89528  0.28462  0.02194  1.0000
  I   I39       1.0  0.25726  0.96318  0.11649  1.0000
  I   I40       1.0  0.39365  0.50868  0.23762  1.0000
  I   I41       1.0  0.14673  0.31776  0.50006  1.0000
  I   I42       1.0  0.49697  0.11265  0.09791  1.0000
  I   I43       1.0  0.99065  0.80414  0.14323  1.0000
  I   I44       1.0  0.79068  0.15151  0.22910  1.0000
  I   I45       1.0  0.88344  0.09730  0.26478  1.0000
  I   I46       1.0  0.36338  0.79874  0.86262  1.0000
  I   I47       1.0  0.17414  0.62392  0.58516  1.0000
  I   I48       1.0  0.43978  0.96779  0.07534  1.0000
  I   I49       1.0  0.50487  0.98118  0.25181  1.0000
  I   I50       1.0  0.72058  0.05624  0.57608  1.0000
  I   I51       1.0  0.53797  0.03398  0.83519  1.0000
  I   I52       1.0  0.12890  0.44698  0.13607  1.0000
  I   I53       1.0  0.63187  0.32573  0.89335  1.0000
  I   I54       1.0  0.74262  0.00015  0.61045  1.0000
  I   I55       1.0  0.33422  0.32948  0.84056  1.0000
  I   I56       1.0  0.37560  0.57240  0.70331  1.0000
  I   I57       1.0  0.33472  0.82394  0.94981  1.0000
  I   I58       1.0  0.92181  0.26104  0.10751  1.0000
  I   I59       1.0  0.82112  0.57996  0.97990  1.0000
  I   I60       1.0  0.72455  0.18642  0.01780  1.0000
  I   I61       1.0  0.57566  0.47780  0.41435  1.0000
  I   I62       1.0  0.56775  0.56492  0.33894  1.0000
  I   I63       1.0  0.57213  0.79369  0.39652  1.0000
  I   I64       1.0  0.85429  0.59891  0.03358  1.0000
  I   I65       1.0  0.55830  0.09069  0.06802  1.0000
  I   I66       1.0  0.33613  0.16780  0.01852  1.0000
  I   I67       1.0  0.67354  0.24430  0.15754  1.0000
  I   I68       1.0  0.61179  0.74933  0.47310  1.0000
  I   I69       1.0  0.23959  0.71535  0.21021  1.0000
  I   I70       1.0  0.15854  0.89241  0.42666  1.0000
  I   I71       1.0  0.43772  0.18498  0.84251  1.0000
  I   I72       1.0  0.33193  0.23031  0.72837  1.0000
  I   I73       1.0  0.89903  0.83837  0.52661  1.0000
  I   I74       1.0  0.27367  0.71852  0.14201  1.0000
  I   I75       1.0  0.26499  0.76765  0.22573  1.0000
  I   I76       1.0  0.61771  0.29043  0.66455  1.0000
  I   I77       1.0  0.63097  0.28655  0.76123  1.0000
  I   I78       1.0  0.88327  0.89527  0.34594  1.0000
  I   I79       1.0  0.84206  0.26758  0.34055  1.0000
  I   I80       1.0  0.75011  0.54147  0.32384  1.0000
  I   I81       1.0  0.08577  0.26071  0.73075  1.0000
  I   I82       1.0  0.43160  0.69978  0.11424  1.0000
  I   I83       1.0  0.82756  0.14643  0.32635  1.0000
  I   I84       1.0  0.16734  0.89789  0.98223  1.0000
  I   I85       1.0  0.27627  0.94413  0.03780  1.0000
  I   I86       1.0  0.27642  0.19189  0.07534  1.0000
  I   I87       1.0  0.87501  0.33719  0.94547  1.0000
  I   I88       1.0  0.87353  0.32178  0.08220  1.0000
  I   I89       1.0  0.64148  0.64714  0.78016  1.0000
  I   I90       1.0  0.15638  0.25682  0.56354  1.0000
  I   I91       1.0  0.55763  0.34034  0.28422  1.0000
  I   I92       1.0  0.77815  0.34669  0.09499  1.0000
  I   I93       1.0  0.40866  0.46047  0.28737  1.0000
  I   I94       1.0  0.49162  0.93431  0.99494  1.0000
  I   I95       1.0  0.59283  0.89865  0.42768  1.0000
  I   I96       1.0  0.46578  0.20156  0.96968  1.0000
  I   I97       1.0  0.90724  0.02754  0.16829  1.0000
  I   I98       1.0  0.76471  0.49290  0.35382  1.0000
  I   I99       1.0  0.69297  0.04461  0.66009  1.0000
  I   I100      1.0  0.44933  0.78888  0.95817  1.0000
  I   I101      1.0  0.72459  0.22437  0.93939  1.0000
  I   I102      1.0  0.95439  0.49306  0.56594  1.0000
  I   I103      1.0  0.29212  0.33476  0.92618  1.0000
  I   I104      1.0  0.99161  0.74520  0.09730  1.0000
  I   I105      1.0  0.31015  0.94147  0.50920  1.0000
  I   I106      1.0  0.50404  0.91820  0.49410  1.0000
  I   I107      1.0  0.84652  0.31588  0.01864  1.0000
  I   I108      1.0  0.46413  0.92978  0.40916  1.0000
  I   I109      1.0  0.67433  0.25926  0.82443  1.0000
  I   I110      1.0  0.55862  0.50142  0.49307  1.0000
  I   I111      1.0  0.63807  0.74358  0.38187  1.0000
  I   I112      1.0  0.52700  0.41257  0.53310  1.0000
  I   I113      1.0  0.31898  0.11342  0.51214  1.0000
  I   I114      1.0  0.56345  0.03601  0.55166  1.0000
  I   I115      1.0  0.66827  0.78529  0.66219  1.0000
  I   I116      1.0  0.67041  0.82927  0.72027  1.0000
  I   I117      1.0  0.14552  0.60733  0.06616  1.0000
  I   I118      1.0  0.02722  0.13193  0.91452  1.0000
  I   I119      1.0  0.71533  0.77528  0.74321  1.0000
  I   I120      1.0  0.20870  0.55590  0.57316  1.0000
  I   I121      1.0  0.31734  0.70003  0.38865  1.0000
  I   I122      1.0  0.95859  0.04075  0.87437  1.0000
  I   I123      1.0  0.46271  0.99593  0.18617  1.0000
  I   I124      1.0  0.37016  0.65916  0.71669  1.0000
  I   I125      1.0  0.72665  0.64443  0.33841  1.0000
  I   I126      1.0  0.98579  0.55415  0.44046  1.0000
  I   I127      1.0  0.78565  0.27388  0.30955  1.0000
  I   I128      1.0  0.47246  0.81034  0.00210  1.0000
  I   I129      1.0  0.40005  0.16307  0.79117  1.0000
  I   I130      1.0  0.18393  0.82442  0.99845  1.0000
  I   I131      1.0  0.39191  0.69423  0.16674  1.0000
  I   I132      1.0  0.32389  0.05249  0.98443  1.0000
  I   I133      1.0  0.94455  0.29688  0.04741  1.0000
  I   I134      1.0  0.50420  0.63292  0.62001  1.0000
  I   I135      1.0  0.14811  0.06189  0.94788  1.0000
  I   I136      1.0  0.39447  0.40099  0.84271  1.0000
  I   I137      1.0  0.82355  0.50350  0.45286  1.0000
  I   I138      1.0  0.87772  0.11465  0.77332  1.0000
  I   I139      1.0  0.61818  0.32774  0.26857  1.0000
  I   I140      1.0  0.73544  0.39716  0.08575  1.0000
  I   I141      1.0  0.41748  0.89281  0.69879  1.0000
  I   I142      1.0  0.51505  0.92751  0.09313  1.0000
  I   I143      1.0  0.92366  0.06062  0.21998  1.0000
  I   I144      1.0  0.42434  0.24759  0.97811  1.0000
  I   I145      1.0  0.76411  0.53523  0.43355  1.0000
  I   I146      1.0  0.67346  0.03581  0.57889  1.0000
  I   I147      1.0  0.96098  0.02120  0.14025  1.0000
  I   I148      1.0  0.80885  0.52436  0.33414  1.0000
  I   I149      1.0  0.93611  0.49214  0.67149  1.0000
  I   I150      1.0  0.19625  0.85808  0.63252  1.0000
  I   I151      1.0  0.01290  0.75049  0.01396  1.0000
  I   I152      1.0  0.43072  0.59159  0.06649  1.0000
  I   I153      1.0  0.01427  0.17864  0.66964  1.0000
  I   I154      1.0  0.37858  0.57038  0.17732  1.0000
  I   I155      1.0  0.28734  0.80266  0.70357  1.0000
  I   I156      1.0  0.71140  0.15031  0.09776  1.0000
  I   I157      1.0  0.62199  0.24674  0.73298  1.0000
  I   I158      1.0  0.20946  0.65559  0.60350  1.0000
  I   I159      1.0  0.60065  0.24312  0.37279  1.0000
  I   I160      1.0  0.57459  0.35920  0.37833  1.0000
  I   I161      1.0  0.58028  0.93298  0.58367  1.0000
  I   I162      1.0  0.50462  0.43522  0.46624  1.0000
  I   I163      1.0  0.69131  0.20215  0.11610  1.0000
  I   I164      1.0  0.63736  0.83953  0.45706  1.0000
  I   I165      1.0  0.39537  0.51858  0.65609  1.0000
  I   I166      1.0  0.02657  0.16625  0.98161  1.0000
  I   I167      1.0  0.60111  0.27018  0.83143  1.0000
  I   I168      1.0  0.86253  0.40881  0.54020  1.0000
  I   I169      1.0  0.88826  0.00962  0.90720  1.0000
  I   I170      1.0  0.94032  0.03125  0.99256  1.0000
  I   I171      1.0  0.94861  0.78099  0.56375  1.0000
  I   I172      1.0  0.70712  0.60550  0.33824  1.0000
  I   I173      1.0  0.99100  0.62513  0.43676  1.0000
  I   I174      1.0  0.38636  0.61526  0.77715  1.0000
  I   I175      1.0  0.85311  0.89515  0.43522  1.0000
  I   I176      1.0  0.11178  0.27462  0.82680  1.0000
  I   I177      1.0  0.86075  0.01017  0.52254  1.0000
  I   I178      1.0  0.42844  0.66537  0.08294  1.0000
  I   I179      1.0  0.79681  0.13137  0.31870  1.0000
  I   I180      1.0  0.21735  0.88888  0.92906  1.0000
  I   I181      1.0  0.50006  0.93812  0.37397  1.0000
  I   I182      1.0  0.34187  0.37154  0.86742  1.0000
  I   I183      1.0  0.86605  0.75682  0.77522  1.0000
  I   I184      1.0  0.73469  0.19077  0.84553  1.0000
  I   I185      1.0  0.93515  0.05235  0.75442  1.0000
  I   I186      1.0  0.36005  0.45149  0.80705  1.0000
  I   I187      1.0  0.78882  0.39388  0.10319  1.0000
  I   I188      1.0  0.40377  0.46245  0.17219  1.0000
  I   I189      1.0  0.81591  0.82322  0.82011  1.0000
  I   I190      1.0  0.58888  0.87271  0.49763  1.0000
  I   I191      1.0  0.58007  0.01238  0.47694  1.0000
  I   I192      1.0  0.95415  0.99137  0.15319  1.0000
  I   I193      1.0  0.94073  0.60438  0.45980  1.0000
  I   I194      1.0  0.61222  0.79660  0.44460  1.0000
  I   I195      1.0  0.96044  0.00041  0.24850  1.0000
  I   I196      1.0  0.42772  0.89310  0.97989  1.0000
  I   I197      1.0  0.01755  0.80636  0.21356  1.0000
  I   I198      1.0  0.15135  0.87409  0.55687  1.0000
  I   I199      1.0  0.06083  0.30171  0.79858  1.0000
  I   I200      1.0  0.73253  0.08793  0.77397  1.0000
  I   I201      1.0  0.93241  0.19415  0.77046  1.0000
  I   I202      1.0  0.86024  0.64032  0.02029  1.0000
  I   I203      1.0  0.27507  0.66911  0.19571  1.0000
  I   I204      1.0  0.51787  0.88041  0.39213  1.0000
  I   I205      1.0  0.54365  0.51102  0.35805  1.0000
  I   I206      1.0  0.49229  0.79906  0.91067  1.0000
  I   I207      1.0  0.70603  0.26313  0.74675  1.0000
  I   I208      1.0  0.86272  0.60892  0.93228  1.0000
  I   I209      1.0  0.55097  0.94518  0.47613  1.0000
  I   I210      1.0  0.89971  0.95385  0.60707  1.0000
  I   I211      1.0  0.20036  0.83872  0.37675  1.0000
  I   I212      1.0  0.20769  0.70431  0.55982  1.0000
  I   I213      1.0  0.23166  0.76332  0.18699  1.0000
  I   I214      1.0  0.45704  0.22881  0.06330  1.0000
  I   I215      1.0  0.38793  0.18794  0.87878  1.0000
  I   I216      1.0  0.45938  0.86224  0.61425  1.0000
  I   I217      1.0  0.98000  0.00027  0.93235  1.0000
  I   I218      1.0  0.47620  0.03051  0.18579  1.0000
  I   I219      1.0  0.30505  0.68867  0.50037  1.0000
  I   I220      1.0  0.65415  0.24257  0.64392  1.0000
  I   I221      1.0  0.94764  0.68797  0.40778  1.0000
  I   I222      1.0  0.69256  0.63624  0.42564  1.0000
  I   I223      1.0  0.85073  0.93608  0.36323  1.0000
  I   I224      1.0  0.07209  0.24061  0.80478  1.0000
  I   I225      1.0  0.82690  0.23388  0.38524  1.0000
  I   I226      1.0  0.37296  0.73663  0.10877  1.0000
  I   I227      1.0  0.35557  0.05576  0.06496  1.0000
  I   I228      1.0  0.14878  0.86665  0.94423  1.0000
  I   I229      1.0  0.99725  0.84317  0.11530  1.0000
  I   I230      1.0  0.46408  0.62506  0.64889  1.0000
  I   I231      1.0  0.91229  0.30130  0.14826  1.0000
  I   I232      1.0  0.42333  0.83639  0.92148  1.0000
  I   I233      1.0  0.31856  0.90679  0.62228  1.0000
  I   I234      1.0  0.51869  0.04302  0.48416  1.0000
  I   I235      1.0  0.36116  0.57530  0.27846  1.0000
  I   I236      1.0  0.40060  0.87187  0.61124  1.0000
  I   I237      1.0  0.58634  0.31184  0.20571  1.0000
  I   I238      1.0  0.35802  0.85011  0.89896  1.0000
  I   I239      1.0  0.05368  0.11451  0.03579  1.0000
  I   I240      1.0  0.43805  0.97364  0.97534  1.0000
  I   I241      1.0  0.71665  0.53644  0.39699  1.0000
  I   I242      1.0  0.66055  0.08706  0.60114  1.0000
  I   I243      1.0  0.17794  0.60532  0.16568  1.0000
  I   I244      1.0  0.77614  0.16370  0.91962  1.0000
  I   I245      1.0  0.69914  0.31253  0.87522  1.0000
  I   I246      1.0  0.14637  0.91911  0.59486  1.0000
  I   I247      1.0  0.33306  0.41228  0.93327  1.0000
  I   I248      1.0  0.34723  0.54047  0.74190  1.0000
  I   I249      1.0  0.04544  0.15569  0.74619  1.0000
  I   I250      1.0  0.82168  0.61702  0.92240  1.0000
  I   I251      1.0  0.28777  0.75060  0.63423  1.0000
  I   I252      1.0  0.74093  0.18476  0.11053  1.0000
  I   I253      1.0  0.56815  0.53341  0.42025  1.0000
  I   I254      1.0  0.41202  0.89841  0.88420  1.0000
  I   I255      1.0  0.60013  0.21250  0.28431  1.0000
  I   I256      1.0  0.26956  0.10733  0.51144  1.0000
  I   I257      1.0  0.28441  0.91291  0.97726  1.0000
  I   I258      1.0  0.55272  0.34840  0.48434  1.0000
  I   I259      1.0  0.70631  0.79333  0.63852  1.0000
  I   I260      1.0  0.63778  0.88625  0.49501  1.0000
  I   I261      1.0  0.34021  0.56876  0.64486  1.0000
  I   I262      1.0  0.41892  0.20488  0.03698  1.0000
  I   I263      1.0  0.85562  0.40509  0.07457  1.0000
  I   I264      1.0  0.17346  0.86605  0.06202  1.0000
  I   I265      1.0  0.92471  0.98812  0.98648  1.0000
  I   I266      1.0  0.26927  0.67537  0.29769  1.0000
  I   I267      1.0  0.35224  0.65069  0.46577  1.0000
  I   I268      1.0  0.19939  0.03420  0.95907  1.0000
  I   I269      1.0  0.97820  0.56387  0.54418  1.0000
  I   I270      1.0  0.31689  0.21506  0.06984  1.0000
  I   I271      1.0  0.82920  0.90549  0.31956  1.0000
  I   I272      1.0  0.61882  0.21732  0.88779  1.0000
  I   I273      1.0  0.79507  0.29488  0.39390  1.0000
  I   I274      1.0  0.33040  0.95043  0.57899  1.0000
  I   I275      1.0  0.89414  0.80130  0.58947  1.0000
  I   I276      1.0  0.17644  0.89564  0.89565  1.0000
  I   I277      1.0  0.38061  0.68250  0.08365  1.0000
  I   I278      1.0  0.53704  0.59494  0.67819  1.0000
  I   I279      1.0  0.44270  0.47786  0.19871  1.0000
  I   I280      1.0  0.86141  0.51521  0.38998  1.0000
  I   I281      1.0  0.35987  0.89302  0.55814  1.0000
  I   I282      1.0  0.38145  0.41122  0.73158  1.0000
  I   I283      1.0  0.39896  0.59788  0.26542  1.0000
  I   I284      1.0  0.83425  0.44793  0.47924  1.0000
  I   I285      1.0  0.84039  0.80580  0.71155  1.0000
  I   I286      1.0  0.31443  0.84201  0.83609  1.0000
  I   I287      1.0  0.27972  0.23599  0.72768  1.0000
  I   I288      1.0  0.47284  0.91785  0.07106  1.0000
  I   I289      1.0  0.34755  0.61923  0.21661  1.0000
  I   I290      1.0  0.59418  0.95175  0.48918  1.0000
  I   I291      1.0  0.49817  0.01634  0.86926  1.0000
  I   I292      1.0  0.84886  0.47880  0.36659  1.0000
  I   I293      1.0  0.64333  0.35933  0.91112  1.0000
  I   I294      1.0  0.77900  0.93779  0.62401  1.0000
  I   I295      1.0  0.34259  0.33739  0.94258  1.0000
  I   I296      1.0  0.77380  0.06250  0.80841  1.0000
  I   I297      1.0  0.96843  0.16427  0.70169  1.0000
  I   I298      1.0  0.97095  0.86540  0.21074  1.0000
  I   I299      1.0  0.86996  0.55838  0.93245  1.0000
  I   I300      1.0  0.45818  0.82710  0.64890  1.0000
  I   I301      1.0  0.56813  0.20659  0.34660  1.0000
  I   I302      1.0  0.52095  0.54840  0.44041  1.0000
  I   I303      1.0  0.33086  0.06100  0.48451  1.0000
  I   I304      1.0  0.55551  0.40857  0.43573  1.0000
  I   I305      1.0  0.83188  0.66427  0.94747  1.0000
  I   I306      1.0  0.37971  0.35919  0.94891  1.0000
  I   I307      1.0  0.22208  0.97599  0.00471  1.0000
  I   I308      1.0  0.18467  0.28331  0.55493  1.0000
  I   I309      1.0  0.47277  0.53447  0.02442  1.0000
  I   I310      1.0  0.46778  0.00949  0.36931  1.0000
  I   I311      1.0  0.84438  0.45833  0.07859  1.0000
  I   I312      1.0  0.14693  0.59411  0.59164  1.0000
  I   I313      1.0  0.30155  0.65924  0.41495  1.0000
  I   I314      1.0  0.90969  0.04954  0.90501  1.0000
  I   I315      1.0  0.43574  0.04362  0.22982  1.0000
  I   I316      1.0  0.66707  0.66293  0.33513  1.0000
  I   I317      1.0  0.15133  0.02784  0.88418  1.0000
  I   I318      1.0  0.94650  0.63993  0.37273  1.0000
  I   I319      1.0  0.91065  0.99636  0.57588  1.0000
  I   I320      1.0  0.38165  0.88784  0.92614  1.0000
  I   I321      1.0  0.01490  0.69302  0.03448  1.0000
  I   I322      1.0  0.63091  0.65504  0.87219  1.0000
  I   I323      1.0  0.84170  0.14774  0.22968  1.0000
  I   I324      1.0  0.20949  0.85984  0.00389  1.0000
  I   I325      1.0  0.24455  0.91641  0.07197  1.0000
  I   I326      1.0  0.30492  0.37904  0.93470  1.0000
  I   I327      1.0  0.86896  0.09964  0.14012  1.0000
  I   I328      1.0  0.85213  0.36381  0.01423  1.0000
  I   I329      1.0  0.89696  0.08747  0.68157  1.0000
  I   I330      1.0  0.57033  0.99188  0.56879  1.0000
  I   I331      1.0  0.81076  0.78507  0.77033  1.0000
  I   I332      1.0  0.53905  0.99192  0.50109  1.0000
  I   I333      1.0  0.62136  0.70356  0.80151  1.0000
  I   I334      1.0  0.48241  0.98111  0.04952  1.0000
  I   I335      1.0  0.14676  0.57318  0.14769  1.0000
  I   I336      1.0  0.00948  0.11720  0.98222  1.0000
  I   I337      1.0  0.52096  0.97743  0.34412  1.0000
  I   I338      1.0  0.12057  0.31381  0.59025  1.0000
  I   I339      1.0  0.55407  0.98234  0.79587  1.0000
  I   I340      1.0  0.10939  0.46362  0.04346  1.0000
  I   I341      1.0  0.91718  0.54146  0.60116  1.0000
  I   I342      1.0  0.79215  0.97733  0.57408  1.0000
  I   I343      1.0  0.05612  0.70436  0.06123  1.0000
  I   I344      1.0  0.74965  0.02548  0.79032  1.0000
  I   I345      1.0  0.99067  0.19326  0.77017  1.0000
  I   I346      1.0  0.16132  0.83995  0.44669  1.0000
  I   I347      1.0  0.80611  0.64160  0.01067  1.0000
  I   I348      1.0  0.72026  0.23121  0.18670  1.0000
  I   I349      1.0  0.63898  0.19425  0.36065  1.0000
  I   I350      1.0  0.59998  0.51088  0.32092  1.0000
  I   I351      1.0  0.45584  0.85149  0.93633  1.0000
  I   I352      1.0  0.52153  0.38266  0.42104  1.0000
  I   I353      1.0  0.29909  0.11385  0.41905  1.0000
  I   I354      1.0  0.29476  0.36658  0.84212  1.0000
  I   I355      1.0  0.72222  0.23937  0.09039  1.0000
  I   I356      1.0  0.19545  0.56342  0.08867  1.0000
  I   I357      1.0  0.29987  0.69687  0.22374  1.0000
  I   I358      1.0  0.80424  0.44372  0.55830  1.0000
  I   I359      1.0  0.79555  0.45047  0.11637  1.0000
  I   I360      1.0  0.30654  0.24197  0.63945  1.0000
  I   I361      1.0  0.92128  0.78777  0.48606  1.0000
  I   I362      1.0  0.87776  0.04987  0.97596  1.0000
  I   I363      1.0  0.26508  0.73055  0.27355  1.0000
  I   I364      1.0  0.40423  0.65742  0.77783  1.0000
  I   I365      1.0  0.67372  0.30685  0.80936  1.0000
  I   I366      1.0  0.92432  0.66163  0.46450  1.0000
  I   I367      1.0  0.91353  0.96782  0.51802  1.0000
  I   I368      1.0  0.13907  0.41354  0.05363  1.0000
  I   I369      1.0  0.42443  0.13272  0.87110  1.0000
  I   I370      1.0  0.96703  0.14203  0.78921  1.0000
  I   I371      1.0  0.89878  0.11737  0.19438  1.0000
  I   I372      1.0  0.85407  0.46182  0.56727  1.0000
  I   I373      1.0  0.20544  0.97121  0.09385  1.0000
  I   I374      1.0  0.50013  0.64615  0.71319  1.0000
  I   I375      1.0  0.83910  0.10440  0.22861  1.0000
  I   I376      1.0  0.81541  0.44049  0.00727  1.0000
  I   I377      1.0  0.88299  0.06155  0.76570  1.0000
  I   I378      1.0  0.42563  0.41097  0.77430  1.0000
  I   I379      1.0  0.60123  0.28408  0.30730  1.0000
  I   I380      1.0  0.75049  0.38643  0.17857  1.0000
  I   I381      1.0  0.77273  0.14301  0.04480  1.0000
  I   I382      1.0  0.43308  0.93317  0.99542  1.0000
  I   I383      1.0  0.25938  0.80286  0.61313  1.0000
  I   I384      1.0  0.32283  0.18788  0.72682  1.0000
