data_image0
_chemical_formula_structural       Ti96I384
_chemical_formula_sum              "Ti96 I384"
_cell_length_a       75.6848
_cell_length_b       75.6084
_cell_length_c       37.0069
_cell_angle_alpha    88.7757
_cell_angle_beta     88.7757
_cell_angle_gamma    62.1586

_space_group_name_H-M_alt    "P 1"
_space_group_IT_number       1

loop_
  _space_group_symop_operation_xyz
  'x, y, z'

loop_
  _atom_site_type_symbol
  _atom_site_label
  _atom_site_symmetry_multiplicity
  _atom_site_fract_x
  _atom_site_fract_y
  _atom_site_fract_z
  _atom_site_occupancy
  Ti  Ti1       1.0  0.69662  0.22399  0.94044  1.0000
  Ti  Ti2       1.0  0.46160  0.74074  0.61234  1.0000
  Ti  Ti3       1.0  0.12900  0.07485  0.34866  1.0000
  Ti  Ti4       1.0  0.16842  0.16335  0.02119  1.0000
  Ti  Ti5       1.0  0.28585  0.06547  0.84592  1.0000
  Ti  Ti6       1.0  0.38441  0.64023  0.26413  1.0000
  Ti  Ti7       1.0  0.75156  0.95926  0.14952  1.0000
  Ti  Ti8       1.0  0.34977  0.75337  0.30923  1.0000
  Ti  Ti9       1.0  0.16009  0.51765  0.71413  1.0000
  Ti  Ti10      1.0  0.50322  0.73498  0.38967  1.0000
  Ti  Ti11      1.0  0.31891  0.88863  0.90115  1.0000
  Ti  Ti12      1.0  0.82715  0.12220  0.12670  1.0000
  Ti  Ti13      1.0  0.76720  0.72906  0.60031  1.0000
  Ti  Ti14      1.0  0.18561  0.19393  0.96170  1.0000
  Ti  Ti15      1.0  0.81618  0.42544  0.85983  1.0000
  Ti  Ti16      1.0  0.30465  0.66433  0.37779  1.0000
  Ti  Ti17      1.0  0.17195  0.79170  0.58600  1.0000
  Ti  Ti18      1.0  0.49634  0.05930  0.55567  1.0000
  Ti  Ti19      1.0  0.82317  0.23167  0.85889  1.0000
  Ti  Ti20      1.0  0.12264  0.56581  0.88954  1.0000
  Ti  Ti21      1.0  0.33818  0.75159  0.20724  1.0000
  Ti  Ti22      1.0  0.66875  0.38214  0.80237  1.0000
  Ti  Ti23      1.0  0.29606  0.60173  0.81693  1.0000
  Ti  Ti24      1.0  0.74390  0.25849  0.47807  1.0000
  Ti  Ti25      1.0  0.73138  0.51763  0.20915  1.0000
  Ti  Ti26      1.0  0.03067  0.80270  0.77910  1.0000
  Ti  Ti27      1.0  0.47667  0.58294  0.99244  1.0000
  Ti  Ti28      1.0  0.57089  0.16484  0.85820  1.0000
  Ti  Ti29      1.0  0.08728  0.07754  0.06952  1.0000
  Ti  Ti30      1.0  0.14938  0.84282  0.16469  1.0000
  Ti  Ti31      1.0  0.67614  0.25675  0.01069  1.0000
  Ti  Ti32      1.0  0.48767  0.73216  0.04529  1.0000
  Ti  Ti33      1.0  0.61010  0.21587  0.78717  1.0000
  Ti  Ti34      1.0  0.83585  0.54678  0.17012  1.0000
  Ti  Ti35      1.0  0.56865  0.83853  0.12445  1.0000
  Ti  Ti36      1.0  0.26283  0.20538  0.50478  1.0000
  Ti  Ti37      1.0  0.00148  0.49235  0.77100  1.0000
  Ti  Ti38      1.0  0.27760  0.43772  0.49266  1.0000
  Ti  Ti39      1.0  0.95836  0.20579  0.67068  1.0000
  Ti  Ti40      1.0  0.52590  0.77444  0.37394  1.0000
  Ti  Ti41      1.0  0.83946  0.55671  0.25504  1.0000
  Ti  Ti42      1.0  0.75194  0.85644  0.32724  1.0000
  Ti  Ti43      1.0  0.02282  0.83042  0.48614  1.0000
  Ti  Ti44      1.0  0.78005  0.31188  0.29565  1.0000
  Ti  Ti45      1.0  0.65648  0.92353  0.22880  1.0000
  Ti  Ti46      1.0  0.85823  0.75288  0.04206  1.0000
  Ti  Ti47      1.0  0.06710  0.91016  0.88832  1.0000
  Ti  Ti48      1.0  0.99062  0.07866  0.66568  1.0000
  Ti  Ti49      1.0  0.04976  0.86962  0.41171  1.0000
  Ti  Ti50      1.0  0.07961  0.25821  0.24743  1.0000
  Ti  Ti51      1.0  0.49167  0.69298  0.60692  1.0000
  Ti  Ti52      1.0  0.46666  0.39485  0.94004  1.0000
  Ti  Ti53      1.0  0.34683  0.75722  0.79103  1.0000
  Ti  Ti54      1.0  0.40425  0.91763  0.06929  1.0000
  Ti  Ti55      1.0  0.46475  0.72757  0.13715  1.0000
  Ti  Ti56      1.0  0.72490  0.82170  0.85031  1.0000
  Ti  Ti57      1.0  0.14947  0.49878  0.65777  1.0000
  Ti  Ti58      1.0  0.36572  0.02976  0.14507  1.0000
  Ti  Ti59      1.0  0.37655  0.63505  0.48024  1.0000
  Ti  Ti60      1.0  0.98539  0.16063  0.20274  1.0000
  Ti  Ti61      1.0  0.71747  0.90413  0.59931  1.0000
  Ti  Ti62      1.0  0.80181  0.68534  0.64952  1.0000
  Ti  Ti63      1.0  0.15237  0.59272  0.82755  1.0000
  Ti  Ti64      1.0  0.48978  0.08123  0.47088  1.0000
  Ti  Ti65      1.0  0.80564  0.02900  0.42883  1.0000
  Ti  Ti66      1.0  0.34974  0.24364  0.12298  1.0000
  Ti  Ti67      1.0  0.29566  0.10073  0.39075  1.0000
  Ti  Ti68      1.0  0.56304  0.22350  0.13750  1.0000
  Ti  Ti69      1.0  0.96860  0.82607  0.72293  1.0000
  Ti  Ti70      1.0  0.24871  0.08728  0.40956  1.0000
  Ti  Ti71      1.0  0.10042  0.72769  0.18699  1.0000
  Ti  Ti72      1.0  0.09276  0.86840  0.97754  1.0000
  Ti  Ti73      1.0  0.51535  0.53241  0.10713  1.0000
  Ti  Ti74      1.0  0.69907  0.56189  0.20186  1.0000
  Ti  Ti75      1.0  0.34987  0.33510  0.09165  1.0000
  Ti  Ti76      1.0  0.40235  0.03904  0.65662  1.0000
  Ti  Ti77      1.0  0.88326  0.39139  0.83483  1.0000
  Ti  Ti78      1.0  0.14155  0.04334  0.10981  1.0000
  Ti  Ti79      1.0  0.32668  0.96655  0.48428  1.0000
  Ti  Ti80      1.0  0.52686  0.91654  0.00039  1.0000
  Ti  Ti81      1.0  0.97451  0.68533  0.15735  1.0000
  Ti  Ti82      1.0  0.72993  0.45882  0.63396  1.0000
  Ti  Ti83      1.0  0.13534  0.34247  0.47313  1.0000
  Ti  Ti84      1.0  0.27466  0.24078  0.48120  1.0000
  Ti  Ti85      1.0  0.03371  0.45861  0.73449  1.0000
  Ti  Ti86      1.0  0.75485  0.00380  0.07500  1.0000
  Ti  Ti87      1.0  0.61611  0.96899  0.23184  1.0000
  Ti  Ti88      1.0  0.29159  0.47660  0.95254  1.0000
  Ti  Ti89      1.0  0.20951  0.49507  0.09191  1.0000
  Ti  Ti90      1.0  0.99702  0.44074  0.10942  1.0000
  Ti  Ti91      1.0  0.95430  0.01998  0.34920  1.0000
  Ti  Ti92      1.0  0.49466  0.38411  0.32878  1.0000
  Ti  Ti93      1.0  0.45098  0.58989  0.52905  1.0000
  Ti  Ti94      1.0  0.96760  0.06480  0.62318  1.0000
  Ti  Ti95      1.0  0.12020  0.29295  0.27705  1.0000
  Ti  Ti96      1.0  0.72095  0.34162  0.78904  1.0000
  I   I1        1.0  0.09537  0.89822  0.94629  1.0000
  I   I2        1.0  0.48775  0.71376  0.67344  1.0000
  I   I3        1.0  0.08666  0.86039  0.41528  1.0000
  I   I4        1.0  0.38161  0.72964  0.81454  1.0000
  I   I5        1.0  0.36259  0.66377  0.31131  1.0000
  I   I6        1.0  0.37725  0.90381  0.07945  1.0000
  I   I7        1.0  0.31094  0.76843  0.31499  1.0000
  I   I8        1.0  0.68958  0.82176  0.87749  1.0000
  I   I9        1.0  0.12381  0.54342  0.67384  1.0000
  I   I10       1.0  0.48102  0.73430  0.34366  1.0000
  I   I11       1.0  0.30115  0.91891  0.95566  1.0000
  I   I12       1.0  0.28466  0.04103  0.79837  1.0000
  I   I13       1.0  0.75571  0.70886  0.65322  1.0000
  I   I14       1.0  0.14988  0.60463  0.76148  1.0000
  I   I15       1.0  0.90959  0.40416  0.82609  1.0000
  I   I16       1.0  0.53195  0.73813  0.34289  1.0000
  I   I17       1.0  0.38765  0.23524  0.13264  1.0000
  I   I18       1.0  0.48752  0.11408  0.44249  1.0000
  I   I19       1.0  0.12366  0.53152  0.88419  1.0000
  I   I20       1.0  0.32510  0.85138  0.89213  1.0000
  I   I21       1.0  0.35945  0.76628  0.24932  1.0000
  I   I22       1.0  0.29270  0.63198  0.77068  1.0000
  I   I23       1.0  0.10586  0.69163  0.17250  1.0000
  I   I24       1.0  0.25619  0.11915  0.41450  1.0000
  I   I25       1.0  0.75770  0.49859  0.26695  1.0000
  I   I26       1.0  0.32703  0.35295  0.15036  1.0000
  I   I27       1.0  0.49753  0.55004  0.95438  1.0000
  I   I28       1.0  0.55951  0.19536  0.89811  1.0000
  I   I29       1.0  0.15206  0.00387  0.13182  1.0000
  I   I30       1.0  0.17454  0.83123  0.11452  1.0000
  I   I31       1.0  0.54519  0.88910  0.04641  1.0000
  I   I32       1.0  0.96738  0.69301  0.08491  1.0000
  I   I33       1.0  0.31818  0.98474  0.41058  1.0000
  I   I34       1.0  0.57213  0.81798  0.06564  1.0000
  I   I35       1.0  0.29279  0.25880  0.51426  1.0000
  I   I36       1.0  0.81147  0.54618  0.11776  1.0000
  I   I37       1.0  0.04521  0.43912  0.67262  1.0000
  I   I38       1.0  0.94258  0.23901  0.70919  1.0000
  I   I39       1.0  0.07432  0.43472  0.74327  1.0000
  I   I40       1.0  0.80019  0.30587  0.23836  1.0000
  I   I41       1.0  0.96743  0.45217  0.06507  1.0000
  I   I42       1.0  0.56160  0.76878  0.37040  1.0000
  I   I43       1.0  0.35238  0.03472  0.21688  1.0000
  I   I44       1.0  0.74577  0.31499  0.31025  1.0000
  I   I45       1.0  0.65547  0.92104  0.15856  1.0000
  I   I46       1.0  0.15144  0.30309  0.26381  1.0000
  I   I47       1.0  0.03688  0.93872  0.91665  1.0000
  I   I48       1.0  0.00291  0.04025  0.63683  1.0000
  I   I49       1.0  0.01002  0.83330  0.55243  1.0000
  I   I50       1.0  0.45343  0.70847  0.63818  1.0000
  I   I51       1.0  0.43332  0.76193  0.57021  1.0000
  I   I52       1.0  0.49061  0.93821  0.02318  1.0000
  I   I53       1.0  0.35761  0.76138  0.72172  1.0000
  I   I54       1.0  0.37512  0.95571  0.07675  1.0000
  I   I55       1.0  0.76975  0.98651  0.16182  1.0000
  I   I56       1.0  0.31290  0.78922  0.19751  1.0000
  I   I57       1.0  0.14759  0.26126  0.23970  1.0000
  I   I58       1.0  0.50004  0.80212  0.41210  1.0000
  I   I59       1.0  0.34787  0.62407  0.48880  1.0000
  I   I60       1.0  0.97188  0.14848  0.15090  1.0000
  I   I61       1.0  0.77890  0.74782  0.55240  1.0000
  I   I62       1.0  0.83864  0.66796  0.65641  1.0000
  I   I63       1.0  0.15236  0.62379  0.87119  1.0000
  I   I64       1.0  0.27110  0.68987  0.35287  1.0000
  I   I65       1.0  0.79108  0.06465  0.40403  1.0000
  I   I66       1.0  0.34346  0.21631  0.08878  1.0000
  I   I67       1.0  0.82961  0.21969  0.92225  1.0000
  I   I68       1.0  0.12129  0.57787  0.95057  1.0000
  I   I69       1.0  0.93202  0.83699  0.74729  1.0000
  I   I70       1.0  0.22347  0.08668  0.35218  1.0000
  I   I71       1.0  0.27503  0.58296  0.84082  1.0000
  I   I72       1.0  0.08878  0.83692  0.00528  1.0000
  I   I73       1.0  0.49539  0.60196  0.02156  1.0000
  I   I74       1.0  0.05095  0.77988  0.83008  1.0000
  I   I75       1.0  0.02120  0.83922  0.80187  1.0000
  I   I76       1.0  0.84648  0.40514  0.80200  1.0000
  I   I77       1.0  0.79277  0.45368  0.90825  1.0000
  I   I78       1.0  0.70224  0.26103  0.95997  1.0000
  I   I79       1.0  0.59742  0.19906  0.83070  1.0000
  I   I80       1.0  0.71040  0.20802  0.00502  1.0000
  I   I81       1.0  0.48231  0.71649  0.99017  1.0000
  I   I82       1.0  0.74291  0.46562  0.57260  1.0000
  I   I83       1.0  0.10689  0.34723  0.51563  1.0000
  I   I84       1.0  0.27673  0.22196  0.55953  1.0000
  I   I85       1.0  0.00520  0.49104  0.84086  1.0000
  I   I86       1.0  0.33977  0.23539  0.18679  1.0000
  I   I87       1.0  0.95062  0.18695  0.72414  1.0000
  I   I88       1.0  0.52534  0.69753  0.39965  1.0000
  I   I89       1.0  0.88266  0.53848  0.27546  1.0000
  I   I90       1.0  0.02373  0.44115  0.06967  1.0000
  I   I91       1.0  0.96897  0.98876  0.30697  1.0000
  I   I92       1.0  0.45859  0.39350  0.29928  1.0000
  I   I93       1.0  0.77799  0.34731  0.31638  1.0000
  I   I94       1.0  0.98299  0.09141  0.59029  1.0000
  I   I95       1.0  0.87983  0.72360  0.08117  1.0000
  I   I96       1.0  0.67017  0.40172  0.86492  1.0000
  I   I97       1.0  0.16119  0.07804  0.37058  1.0000
  I   I98       1.0  0.65960  0.24141  0.96064  1.0000
  I   I99       1.0  0.47965  0.69885  0.54181  1.0000
  I   I100      1.0  0.16395  0.19359  0.06500  1.0000
  I   I101      1.0  0.29815  0.48504  0.88679  1.0000
  I   I102      1.0  0.25479  0.08639  0.89174  1.0000
  I   I103      1.0  0.77065  0.96301  0.07869  1.0000
  I   I104      1.0  0.42812  0.72780  0.14711  1.0000
  I   I105      1.0  0.19163  0.48898  0.67066  1.0000
  I   I106      1.0  0.85448  0.08567  0.14364  1.0000
  I   I107      1.0  0.54553  0.74014  0.43242  1.0000
  I   I108      1.0  0.85141  0.13019  0.08709  1.0000
  I   I109      1.0  0.81858  0.39457  0.89435  1.0000
  I   I110      1.0  0.74969  0.76442  0.64017  1.0000
  I   I111      1.0  0.11097  0.60581  0.85613  1.0000
  I   I112      1.0  0.50647  0.05970  0.41507  1.0000
  I   I113      1.0  0.79862  0.04411  0.49622  1.0000
  I   I114      1.0  0.18779  0.78930  0.52522  1.0000
  I   I115      1.0  0.32181  0.08244  0.33141  1.0000
  I   I116      1.0  0.28228  0.12874  0.33945  1.0000
  I   I117      1.0  0.52575  0.24655  0.15171  1.0000
  I   I118      1.0  0.69076  0.34692  0.83721  1.0000
  I   I119      1.0  0.29182  0.07193  0.42949  1.0000
  I   I120      1.0  0.08986  0.87802  0.04506  1.0000
  I   I121      1.0  0.54560  0.53770  0.08890  1.0000
  I   I122      1.0  0.70562  0.51284  0.25421  1.0000
  I   I123      1.0  0.38242  0.33780  0.08128  1.0000
  I   I124      1.0  0.14921  0.87181  0.20236  1.0000
  I   I125      1.0  0.37165  0.07620  0.65967  1.0000
  I   I126      1.0  0.12773  0.06817  0.16120  1.0000
  I   I127      1.0  0.58764  0.23006  0.72901  1.0000
  I   I128      1.0  0.20097  0.15301  0.96301  1.0000
  I   I129      1.0  0.94460  0.72000  0.18482  1.0000
  I   I130      1.0  0.28616  0.25755  0.42331  1.0000
  I   I131      1.0  0.70955  0.44187  0.59789  1.0000
  I   I132      1.0  0.59616  0.85136  0.11307  1.0000
  I   I133      1.0  0.99526  0.18949  0.68156  1.0000
  I   I134      1.0  0.24735  0.47426  0.47846  1.0000
  I   I135      1.0  0.31849  0.27691  0.10686  1.0000
  I   I136      1.0  0.78787  0.83477  0.36276  1.0000
  I   I137      1.0  0.46696  0.37447  0.00248  1.0000
  I   I138      1.0  0.21044  0.47704  0.15092  1.0000
  I   I139      1.0  0.97392  0.03589  0.31506  1.0000
  I   I140      1.0  0.51976  0.37891  0.27790  1.0000
  I   I141      1.0  0.44463  0.61728  0.48083  1.0000
  I   I142      1.0  0.95617  0.05266  0.68044  1.0000
  I   I143      1.0  0.15135  0.03690  0.31775  1.0000
  I   I144      1.0  0.65258  0.41164  0.75076  1.0000
  I   I145      1.0  0.73491  0.20751  0.93479  1.0000
  I   I146      1.0  0.44641  0.76556  0.66908  1.0000
  I   I147      1.0  0.13957  0.09019  0.28680  1.0000
  I   I148      1.0  0.43001  0.40635  0.90870  1.0000
  I   I149      1.0  0.29838  0.08687  0.80938  1.0000
  I   I150      1.0  0.41605  0.63595  0.29361  1.0000
  I   I151      1.0  0.45332  0.75652  0.08329  1.0000
  I   I152      1.0  0.36272  0.72353  0.35374  1.0000
  I   I153      1.0  0.16807  0.54868  0.70835  1.0000
  I   I154      1.0  0.02710  0.86162  0.46981  1.0000
  I   I155      1.0  0.34601  0.89742  0.93071  1.0000
  I   I156      1.0  0.01810  0.13260  0.23310  1.0000
  I   I157      1.0  0.89880  0.37247  0.89020  1.0000
  I   I158      1.0  0.19501  0.56732  0.81371  1.0000
  I   I159      1.0  0.75158  0.88795  0.56750  1.0000
  I   I160      1.0  0.52585  0.06051  0.51772  1.0000
  I   I161      1.0  0.16965  0.75883  0.61092  1.0000
  I   I162      1.0  0.51639  0.02453  0.57856  1.0000
  I   I163      1.0  0.85946  0.22041  0.83256  1.0000
  I   I164      1.0  0.58892  0.21960  0.18802  1.0000
  I   I165      1.0  0.35349  0.71971  0.25159  1.0000
  I   I166      1.0  0.74423  0.33360  0.84115  1.0000
  I   I167      1.0  0.30786  0.60656  0.87772  1.0000
  I   I168      1.0  0.75743  0.21796  0.47644  1.0000
  I   I169      1.0  0.69597  0.53026  0.16863  1.0000
  I   I170      1.0  0.67085  0.57070  0.24599  1.0000
  I   I171      1.0  0.48305  0.60560  0.93743  1.0000
  I   I172      1.0  0.37450  0.02385  0.64886  1.0000
  I   I173      1.0  0.18043  0.03096  0.11097  1.0000
  I   I174      1.0  0.10975  0.85313  0.16018  1.0000
  I   I175      1.0  0.69899  0.25743  0.06885  1.0000
  I   I176      1.0  0.52668  0.71255  0.02898  1.0000
  I   I177      1.0  0.30561  0.94660  0.46037  1.0000
  I   I178      1.0  0.76922  0.43713  0.64205  1.0000
  I   I179      1.0  0.16035  0.34679  0.51152  1.0000
  I   I180      1.0  0.23895  0.24874  0.47409  1.0000
  I   I181      1.0  0.02515  0.50068  0.72523  1.0000
  I   I182      1.0  0.72118  0.95068  0.14022  1.0000
  I   I183      1.0  0.59334  0.98164  0.17290  1.0000
  I   I184      1.0  0.26651  0.51112  0.97997  1.0000
  I   I185      1.0  0.22270  0.51903  0.10500  1.0000
  I   I186      1.0  0.76202  0.86178  0.25958  1.0000
  I   I187      1.0  0.48340  0.41932  0.35565  1.0000
  I   I188      1.0  0.80299  0.28545  0.33982  1.0000
  I   I189      1.0  0.59884  0.94803  0.25374  1.0000
  I   I190      1.0  0.88699  0.75741  0.00538  1.0000
  I   I191      1.0  0.11856  0.22962  0.22780  1.0000
  I   I192      1.0  0.09969  0.06634  0.32998  1.0000
  I   I193      1.0  0.06063  0.08058  0.11943  1.0000
  I   I194      1.0  0.06973  0.22925  0.27627  1.0000
  I   I195      1.0  0.12499  0.08083  0.42111  1.0000
  I   I196      1.0  0.19021  0.13120  0.05442  1.0000
  I   I197      1.0  0.36902  0.04640  0.07980  1.0000
  I   I198      1.0  0.38778  0.60522  0.28606  1.0000
  I   I199      1.0  0.48905  0.76492  0.02897  1.0000
  I   I200      1.0  0.74738  0.78016  0.84175  1.0000
  I   I201      1.0  0.18202  0.51714  0.77115  1.0000
  I   I202      1.0  0.38565  0.63538  0.41619  1.0000
  I   I203      1.0  0.99225  0.81416  0.80464  1.0000
  I   I204      1.0  0.80799  0.12364  0.07267  1.0000
  I   I205      1.0  0.74052  0.72742  0.56340  1.0000
  I   I206      1.0  0.14903  0.22917  0.95753  1.0000
  I   I207      1.0  0.90301  0.35949  0.79216  1.0000
  I   I208      1.0  0.32827  0.67840  0.39426  1.0000
  I   I209      1.0  0.13694  0.82038  0.58101  1.0000
  I   I210      1.0  0.36394  0.94373  0.47045  1.0000
  I   I211      1.0  0.22384  0.09963  0.46878  1.0000
  I   I212      1.0  0.08484  0.57510  0.86597  1.0000
  I   I213      1.0  0.97067  0.85916  0.69455  1.0000
  I   I214      1.0  0.68706  0.35727  0.74802  1.0000
  I   I215      1.0  0.32407  0.57735  0.77914  1.0000
  I   I216      1.0  0.48916  0.58100  0.54516  1.0000
  I   I217      1.0  0.76292  0.49470  0.16701  1.0000
  I   I218      1.0  0.32637  0.35366  0.03550  1.0000
  I   I219      1.0  0.53723  0.49187  0.11043  1.0000
  I   I220      1.0  0.78872  0.43505  0.80737  1.0000
  I   I221      1.0  0.11289  0.03097  0.08933  1.0000
  I   I222      1.0  0.41582  0.03352  0.59069  1.0000
  I   I223      1.0  0.65765  0.29627  0.01014  1.0000
  I   I224      1.0  0.48654  0.69165  0.15587  1.0000
  I   I225      1.0  0.59184  0.24833  0.82636  1.0000
  I   I226      1.0  0.72676  0.43662  0.68843  1.0000
  I   I227      1.0  0.57713  0.82260  0.18954  1.0000
  I   I228      1.0  0.26372  0.19709  0.43673  1.0000
  I   I229      1.0  0.19571  0.79737  0.62377  1.0000
  I   I230      1.0  0.27010  0.42738  0.55901  1.0000
  I   I231      1.0  0.96229  0.19268  0.60590  1.0000
  I   I232      1.0  0.19692  0.20298  0.90044  1.0000
  I   I233      1.0  0.80816  0.57680  0.31074  1.0000
  I   I234      1.0  0.99178  0.45678  0.17006  1.0000
  I   I235      1.0  0.03406  0.89808  0.36289  1.0000
  I   I236      1.0  0.47062  0.55438  0.48748  1.0000
  I   I237      1.0  0.94757  0.03460  0.42136  1.0000
  I   I238      1.0  0.09991  0.33503  0.26906  1.0000
  I   I239      1.0  0.74660  0.34829  0.74544  1.0000
  I   I240      1.0  0.01904  0.08861  0.65758  1.0000
  I   I241      1.0  0.69110  0.19895  0.90009  1.0000
  I   I242      1.0  0.49019  0.74796  0.60410  1.0000
  I   I243      1.0  0.84268  0.73463  0.99962  1.0000
  I   I244      1.0  0.31782  0.46076  0.00544  1.0000
  I   I245      1.0  0.31817  0.75214  0.82051  1.0000
  I   I246      1.0  0.38290  0.65356  0.19895  1.0000
  I   I247      1.0  0.75758  0.99865  0.00767  1.0000
  I   I248      1.0  0.36112  0.74084  0.14558  1.0000
  I   I249      1.0  0.14598  0.49386  0.73733  1.0000
  I   I250      1.0  0.36313  0.66498  0.52858  1.0000
  I   I251      1.0  0.31306  0.90010  0.83047  1.0000
  I   I252      1.0  0.95318  0.18983  0.23017  1.0000
  I   I253      1.0  0.79927  0.72332  0.63868  1.0000
  I   I254      1.0  0.14832  0.18492  0.96744  1.0000
  I   I255      1.0  0.72471  0.89357  0.66759  1.0000
  I   I256      1.0  0.84015  0.02036  0.40064  1.0000
  I   I257      1.0  0.97702  0.52979  0.76743  1.0000
  I   I258      1.0  0.47598  0.07707  0.61382  1.0000
  I   I259      1.0  0.31652  0.10930  0.44570  1.0000
  I   I260      1.0  0.56765  0.24159  0.07867  1.0000
  I   I261      1.0  0.31386  0.74083  0.16724  1.0000
  I   I262      1.0  0.63341  0.38580  0.81043  1.0000
  I   I263      1.0  0.07027  0.74916  0.14075  1.0000
  I   I264      1.0  0.23334  0.19750  0.52256  1.0000
  I   I265      1.0  0.72749  0.54764  0.14597  1.0000
  I   I266      1.0  0.00571  0.79431  0.71800  1.0000
  I   I267      1.0  0.49002  0.55143  0.05737  1.0000
  I   I268      1.0  0.57578  0.14168  0.91285  1.0000
  I   I269      1.0  0.06125  0.07866  0.02040  1.0000
  I   I270      1.0  0.53302  0.17562  0.84501  1.0000
  I   I271      1.0  0.64865  0.25103  0.05025  1.0000
  I   I272      1.0  0.95558  0.66396  0.16227  1.0000
  I   I273      1.0  0.64737  0.20802  0.77664  1.0000
  I   I274      1.0  0.83701  0.52395  0.24770  1.0000
  I   I275      1.0  0.53147  0.86729  0.13036  1.0000
  I   I276      1.0  0.29995  0.20457  0.46630  1.0000
  I   I277      1.0  0.69559  0.49656  0.64442  1.0000
  I   I278      1.0  0.30690  0.44372  0.51294  1.0000
  I   I279      1.0  0.65739  0.95089  0.27621  1.0000
  I   I280      1.0  0.47135  0.42659  0.92942  1.0000
  I   I281      1.0  0.80466  0.57731  0.20613  1.0000
  I   I282      1.0  0.72124  0.89149  0.34221  1.0000
  I   I283      1.0  0.99409  0.82202  0.46335  1.0000
  I   I284      1.0  0.72342  0.27839  0.41501  1.0000
  I   I285      1.0  0.60655  0.99714  0.28740  1.0000
  I   I286      1.0  0.08932  0.28917  0.26386  1.0000
  I   I287      1.0  0.05651  0.91078  0.81870  1.0000
  I   I288      1.0  0.99682  0.07587  0.73595  1.0000
  I   I289      1.0  0.05784  0.89028  0.46654  1.0000
  I   I290      1.0  0.04965  0.27499  0.29025  1.0000
  I   I291      1.0  0.50612  0.65337  0.63334  1.0000
  I   I292      1.0  0.49384  0.37314  0.89839  1.0000
  I   I293      1.0  0.33129  0.79390  0.80917  1.0000
  I   I294      1.0  0.42135  0.91186  0.00589  1.0000
  I   I295      1.0  0.78182  0.92318  0.15286  1.0000
  I   I296      1.0  0.72446  0.84012  0.79132  1.0000
  I   I297      1.0  0.16224  0.49126  0.59484  1.0000
  I   I298      1.0  0.33114  0.03183  0.12859  1.0000
  I   I299      1.0  0.29086  0.65247  0.43467  1.0000
  I   I300      1.0  0.44313  0.56234  0.56717  1.0000
  I   I301      1.0  0.69027  0.90021  0.56774  1.0000
  I   I302      1.0  0.79908  0.67129  0.58994  1.0000
  I   I303      1.0  0.48000  0.74472  0.44227  1.0000
  I   I304      1.0  0.47154  0.05838  0.49523  1.0000
  I   I305      1.0  0.31794  0.63188  0.33332  1.0000
  I   I306      1.0  0.74007  0.97193  0.21411  1.0000
  I   I307      1.0  0.81733  0.20332  0.83086  1.0000
  I   I308      1.0  0.16048  0.55586  0.85897  1.0000
  I   I309      1.0  0.36239  0.77670  0.34002  1.0000
  I   I310      1.0  0.05682  0.79284  0.46639  1.0000
  I   I311      1.0  0.07861  0.74818  0.24848  1.0000
  I   I312      1.0  0.12871  0.83757  0.96770  1.0000
  I   I313      1.0  0.50379  0.54619  0.17053  1.0000
  I   I314      1.0  0.73194  0.55598  0.24328  1.0000
  I   I315      1.0  0.35652  0.29902  0.10101  1.0000
  I   I316      1.0  0.41563  0.01463  0.70982  1.0000
  I   I317      1.0  0.59616  0.14676  0.81051  1.0000
  I   I318      1.0  0.12760  0.06245  0.03911  1.0000
  I   I319      1.0  0.33418  0.96247  0.55597  1.0000
  I   I320      1.0  0.21196  0.20277  0.99147  1.0000
  I   I321      1.0  0.50266  0.71067  0.10533  1.0000
  I   I322      1.0  0.85567  0.56928  0.15910  1.0000
  I   I323      1.0  0.11931  0.37006  0.42154  1.0000
  I   I324      1.0  0.28533  0.16557  0.53122  1.0000
  I   I325      1.0  0.01287  0.45018  0.78927  1.0000
  I   I326      1.0  0.78198  0.01828  0.08957  1.0000
  I   I327      1.0  0.69493  0.90394  0.24370  1.0000
  I   I328      1.0  0.51768  0.78438  0.30825  1.0000
  I   I329      1.0  0.17182  0.51207  0.08413  1.0000
  I   I330      1.0  0.01407  0.40162  0.12977  1.0000
  I   I331      1.0  0.63508  0.98830  0.19485  1.0000
  I   I332      1.0  0.39197  0.99179  0.13840  1.0000
  I   I333      1.0  0.84209  0.59057  0.26973  1.0000
  I   I334      1.0  0.94640  0.05678  0.57938  1.0000
  I   I335      1.0  0.82879  0.77432  0.08869  1.0000
  I   I336      1.0  0.72244  0.30433  0.76516  1.0000
  I   I337      1.0  0.05292  0.83414  0.38975  1.0000
  I   I338      1.0  0.06609  0.26408  0.18096  1.0000
  I   I339      1.0  0.53252  0.67368  0.58212  1.0000
  I   I340      1.0  0.54152  0.94098  0.98673  1.0000
  I   I341      1.0  0.30813  0.04653  0.89793  1.0000
  I   I342      1.0  0.43385  0.91864  0.09664  1.0000
  I   I343      1.0  0.46131  0.74755  0.19438  1.0000
  I   I344      1.0  0.73645  0.83822  0.89646  1.0000
  I   I345      1.0  0.12027  0.48853  0.65480  1.0000
  I   I346      1.0  0.26574  0.04292  0.41891  1.0000
  I   I347      1.0  0.40500  0.61139  0.52668  1.0000
  I   I348      1.0  0.99556  0.17247  0.13764  1.0000
  I   I349      1.0  0.71075  0.93987  0.60035  1.0000
  I   I350      1.0  0.78845  0.66979  0.69971  1.0000
  I   I351      1.0  0.13516  0.16145  0.04177  1.0000
  I   I352      1.0  0.46855  0.09956  0.53642  1.0000
  I   I353      1.0  0.80155  0.99550  0.43176  1.0000
  I   I354      1.0  0.72696  0.03943  0.06434  1.0000
  I   I355      1.0  0.78648  0.26089  0.85970  1.0000
  I   I356      1.0  0.55424  0.19271  0.11847  1.0000
  I   I357      1.0  0.05503  0.80983  0.74228  1.0000
  I   I358      1.0  0.71455  0.26582  0.52422  1.0000
  I   I359      1.0  0.13072  0.73239  0.16967  1.0000
  I   I360      1.0  0.07643  0.86414  0.91953  1.0000
  I   I361      1.0  0.44063  0.59871  0.00873  1.0000
  I   I362      1.0  0.68028  0.59222  0.15120  1.0000
  I   I363      1.0  0.96188  0.81631  0.66094  1.0000
  I   I364      1.0  0.16885  0.81269  0.20681  1.0000
  I   I365      1.0  0.85350  0.42778  0.86353  1.0000
  I   I366      1.0  0.08500  0.11079  0.08307  1.0000
  I   I367      1.0  0.31734  0.00464  0.47891  1.0000
  I   I368      1.0  0.53031  0.89760  0.94197  1.0000
  I   I369      1.0  0.00934  0.66333  0.18733  1.0000
  I   I370      1.0  0.86657  0.51184  0.15560  1.0000
  I   I371      1.0  0.15300  0.30768  0.45472  1.0000
  I   I372      1.0  0.75700  0.28731  0.49023  1.0000
  I   I373      1.0  0.99497  0.46522  0.70200  1.0000
  I   I374      1.0  0.27973  0.40350  0.47754  1.0000
  I   I375      1.0  0.65073  0.89841  0.26984  1.0000
  I   I376      1.0  0.28045  0.44952  0.94826  1.0000
  I   I377      1.0  0.22899  0.47557  0.03751  1.0000
  I   I378      1.0  0.73749  0.83215  0.34177  1.0000
  I   I379      1.0  0.91661  0.04244  0.33417  1.0000
  I   I380      1.0  0.49717  0.36024  0.37891  1.0000
  I   I381      1.0  0.80062  0.15064  0.16922  1.0000
  I   I382      1.0  0.95353  0.10366  0.66908  1.0000
  I   I383      1.0  0.12284  0.28947  0.34820  1.0000
  I   I384      1.0  0.09732  0.91550  0.85891  1.0000
