data_image0
_chemical_formula_structural       Ti96I384
_chemical_formula_sum              "Ti96 I384"
_cell_length_a       71.1695
_cell_length_b       71.0477
_cell_length_c       34.7815
_cell_angle_alpha    88.7757
_cell_angle_beta     88.7757
_cell_angle_gamma    62.1586

_space_group_name_H-M_alt    "P 1"
_space_group_IT_number       1

loop_
  _space_group_symop_operation_xyz
  'x, y, z'

loop_
  _atom_site_type_symbol
  _atom_site_label
  _atom_site_symmetry_multiplicity
  _atom_site_fract_x
  _atom_site_fract_y
  _atom_site_fract_z
  _atom_site_occupancy
  Ti  Ti1       1.0  0.19596  0.88167  0.21891  1.0000
  Ti  Ti2       1.0  0.03785  0.03969  0.03942  1.0000
  Ti  Ti3       1.0  0.29741  0.12417  0.31737  1.0000
  Ti  Ti4       1.0  0.03498  0.60630  0.72216  1.0000
  Ti  Ti5       1.0  0.43670  0.45403  0.24466  1.0000
  Ti  Ti6       1.0  0.88037  0.77166  0.39920  1.0000
  Ti  Ti7       1.0  0.56673  0.99314  0.57903  1.0000
  Ti  Ti8       1.0  0.16148  0.56004  0.46520  1.0000
  Ti  Ti9       1.0  0.42146  0.20430  0.03445  1.0000
  Ti  Ti10      1.0  0.52396  0.47587  0.80177  1.0000
  Ti  Ti11      1.0  0.19823  0.49072  0.85965  1.0000
  Ti  Ti12      1.0  0.95096  0.67721  0.48292  1.0000
  Ti  Ti13      1.0  0.74560  0.52385  0.93625  1.0000
  Ti  Ti14      1.0  0.02567  0.85982  0.82389  1.0000
  Ti  Ti15      1.0  0.61230  0.60007  0.73153  1.0000
  Ti  Ti16      1.0  0.49282  0.48674  0.72267  1.0000
  Ti  Ti17      1.0  0.23331  0.55945  0.69607  1.0000
  Ti  Ti18      1.0  0.43398  0.01510  0.57055  1.0000
  Ti  Ti19      1.0  0.37878  0.59216  0.37087  1.0000
  Ti  Ti20      1.0  0.05184  0.88676  0.48604  1.0000
  Ti  Ti21      1.0  0.14463  0.50680  0.44706  1.0000
  Ti  Ti22      1.0  0.69005  0.69494  0.42203  1.0000
  Ti  Ti23      1.0  0.14212  0.07484  0.22846  1.0000
  Ti  Ti24      1.0  0.98314  0.82154  0.50142  1.0000
  Ti  Ti25      1.0  0.38156  0.36376  0.42277  1.0000
  Ti  Ti26      1.0  0.73701  0.93974  0.84413  1.0000
  Ti  Ti27      1.0  0.76852  0.15145  0.18210  1.0000
  Ti  Ti28      1.0  0.36825  0.96072  0.73267  1.0000
  Ti  Ti29      1.0  0.13864  0.79493  0.87672  1.0000
  Ti  Ti30      1.0  0.28296  0.87503  0.81357  1.0000
  Ti  Ti31      1.0  0.75918  0.06060  0.26573  1.0000
  Ti  Ti32      1.0  0.34030  0.88619  0.20896  1.0000
  Ti  Ti33      1.0  0.25753  0.60179  0.92249  1.0000
  Ti  Ti34      1.0  0.58743  0.53647  0.77893  1.0000
  Ti  Ti35      1.0  0.09053  0.34263  0.69365  1.0000
  Ti  Ti36      1.0  0.95442  0.23117  0.83051  1.0000
  Ti  Ti37      1.0  0.25633  0.07693  0.57093  1.0000
  Ti  Ti38      1.0  0.87055  0.16207  0.39518  1.0000
  Ti  Ti39      1.0  0.64186  0.59731  0.27221  1.0000
  Ti  Ti40      1.0  0.45201  0.66355  0.66740  1.0000
  Ti  Ti41      1.0  0.55869  0.19010  0.63020  1.0000
  Ti  Ti42      1.0  0.05556  0.84172  0.23148  1.0000
  Ti  Ti43      1.0  0.13842  0.94422  0.72415  1.0000
  Ti  Ti44      1.0  0.58468  0.13250  0.69697  1.0000
  Ti  Ti45      1.0  0.10238  0.33776  0.11933  1.0000
  Ti  Ti46      1.0  0.32608  0.92067  0.56026  1.0000
  Ti  Ti47      1.0  0.79920  0.11371  0.67822  1.0000
  Ti  Ti48      1.0  0.91822  0.00959  0.27902  1.0000
  Ti  Ti49      1.0  0.17734  0.96861  0.12098  1.0000
  Ti  Ti50      1.0  0.50242  0.41776  0.01242  1.0000
  Ti  Ti51      1.0  0.98641  0.04811  0.07304  1.0000
  Ti  Ti52      1.0  0.59960  0.35871  0.26641  1.0000
  Ti  Ti53      1.0  0.40760  0.70688  0.43287  1.0000
  Ti  Ti54      1.0  0.89349  0.81241  0.78750  1.0000
  Ti  Ti55      1.0  0.61549  0.94983  0.55443  1.0000
  Ti  Ti56      1.0  0.36057  0.41858  0.14134  1.0000
  Ti  Ti57      1.0  0.45071  0.15973  0.93556  1.0000
  Ti  Ti58      1.0  0.55516  0.47918  0.43485  1.0000
  Ti  Ti59      1.0  0.84973  0.10858  0.97918  1.0000
  Ti  Ti60      1.0  0.94369  0.63310  0.44095  1.0000
  Ti  Ti61      1.0  0.65697  0.61144  0.63769  1.0000
  Ti  Ti62      1.0  0.75549  0.50385  0.85501  1.0000
  Ti  Ti63      1.0  0.66833  0.98571  0.16552  1.0000
  Ti  Ti64      1.0  0.42092  0.98255  0.55115  1.0000
  Ti  Ti65      1.0  0.94306  0.79091  0.10187  1.0000
  Ti  Ti66      1.0  0.62630  0.30392  0.92287  1.0000
  Ti  Ti67      1.0  0.79510  0.74335  0.02193  1.0000
  Ti  Ti68      1.0  0.41588  0.52158  0.37031  1.0000
  Ti  Ti69      1.0  0.78043  0.90303  0.76026  1.0000
  Ti  Ti70      1.0  0.78139  0.74484  0.92477  1.0000
  Ti  Ti71      1.0  0.20298  0.07101  0.21364  1.0000
  Ti  Ti72      1.0  0.74907  0.16073  0.73782  1.0000
  Ti  Ti73      1.0  0.76739  0.18665  0.12597  1.0000
  Ti  Ti74      1.0  0.41263  0.33298  0.50732  1.0000
  Ti  Ti75      1.0  0.49054  0.98606  0.09536  1.0000
  Ti  Ti76      1.0  0.23512  0.99334  0.84829  1.0000
  Ti  Ti77      1.0  0.31543  0.25992  0.66641  1.0000
  Ti  Ti78      1.0  0.14162  0.75004  0.78726  1.0000
  Ti  Ti79      1.0  0.70157  0.67219  0.92161  1.0000
  Ti  Ti80      1.0  0.95645  0.27810  0.38412  1.0000
  Ti  Ti81      1.0  0.35541  0.91658  0.18953  1.0000
  Ti  Ti82      1.0  0.26058  0.26079  0.98602  1.0000
  Ti  Ti83      1.0  0.08261  0.36225  0.77991  1.0000
  Ti  Ti84      1.0  0.99240  0.21432  0.89060  1.0000
  Ti  Ti85      1.0  0.22230  0.07245  0.58687  1.0000
  Ti  Ti86      1.0  0.67736  0.23568  0.94033  1.0000
  Ti  Ti87      1.0  0.12384  0.27209  0.17834  1.0000
  Ti  Ti88      1.0  0.61365  0.34294  0.35246  1.0000
  Ti  Ti89      1.0  0.48223  0.31263  0.21386  1.0000
  Ti  Ti90      1.0  0.07864  0.80351  0.16340  1.0000
  Ti  Ti91      1.0  0.28475  0.51407  0.35970  1.0000
  Ti  Ti92      1.0  0.31192  0.75988  0.71961  1.0000
  Ti  Ti93      1.0  0.02911  0.49472  0.06066  1.0000
  Ti  Ti94      1.0  0.89815  0.05667  0.22221  1.0000
  Ti  Ti95      1.0  0.36677  0.71604  0.07662  1.0000
  Ti  Ti96      1.0  0.97803  0.22724  0.18212  1.0000
  I   I1        1.0  0.79151  0.12287  0.76001  1.0000
  I   I2        1.0  0.01128  0.07359  0.09784  1.0000
  I   I3        1.0  0.17734  0.00243  0.11381  1.0000
  I   I4        1.0  0.38192  0.74354  0.40302  1.0000
  I   I5        1.0  0.90545  0.73977  0.35586  1.0000
  I   I6        1.0  0.92887  0.80789  0.81285  1.0000
  I   I7        1.0  0.14879  0.48111  0.51019  1.0000
  I   I8        1.0  0.40017  0.40310  0.15613  1.0000
  I   I9        1.0  0.49028  0.15129  0.92454  1.0000
  I   I10       1.0  0.47487  0.52113  0.68217  1.0000
  I   I11       1.0  0.16875  0.51145  0.90487  1.0000
  I   I12       1.0  0.47073  0.45826  0.25879  1.0000
  I   I13       1.0  0.71809  0.52111  0.88531  1.0000
  I   I14       1.0  0.67659  0.95000  0.13400  1.0000
  I   I15       1.0  0.65933  0.58599  0.70633  1.0000
  I   I16       1.0  0.52396  0.50121  0.73547  1.0000
  I   I17       1.0  0.62670  0.34229  0.91253  1.0000
  I   I18       1.0  0.42387  0.05564  0.57627  1.0000
  I   I19       1.0  0.03347  0.92778  0.49018  1.0000
  I   I20       1.0  0.23155  0.46241  0.88469  1.0000
  I   I21       1.0  0.15265  0.53597  0.40889  1.0000
  I   I22       1.0  0.11797  0.07074  0.16850  1.0000
  I   I23       1.0  0.11202  0.11564  0.22596  1.0000
  I   I24       1.0  0.83631  0.72155  0.00280  1.0000
  I   I25       1.0  0.40501  0.37812  0.46666  1.0000
  I   I26       1.0  0.49436  0.99863  0.16376  1.0000
  I   I27       1.0  0.79570  0.12561  0.23165  1.0000
  I   I28       1.0  0.40266  0.95394  0.69846  1.0000
  I   I29       1.0  0.12097  0.83561  0.88510  1.0000
  I   I30       1.0  0.25006  0.86660  0.80624  1.0000
  I   I31       1.0  0.96259  0.30983  0.39617  1.0000
  I   I32       1.0  0.31667  0.91766  0.15806  1.0000
  I   I33       1.0  0.67411  0.71446  0.94300  1.0000
  I   I34       1.0  0.04993  0.34986  0.70002  1.0000
  I   I35       1.0  0.95651  0.22493  0.93994  1.0000
  I   I36       1.0  0.59872  0.49976  0.74929  1.0000
  I   I37       1.0  0.28108  0.09116  0.53513  1.0000
  I   I38       1.0  0.65802  0.57614  0.33614  1.0000
  I   I39       1.0  0.24937  0.04875  0.64250  1.0000
  I   I40       1.0  0.54316  0.16726  0.68726  1.0000
  I   I41       1.0  0.09362  0.82874  0.14034  1.0000
  I   I42       1.0  0.46042  0.62318  0.66330  1.0000
  I   I43       1.0  0.59432  0.45618  0.44523  1.0000
  I   I44       1.0  0.62176  0.10679  0.73150  1.0000
  I   I45       1.0  0.11702  0.36231  0.08994  1.0000
  I   I46       1.0  0.36623  0.69456  0.13837  1.0000
  I   I47       1.0  0.75608  0.13126  0.66980  1.0000
  I   I48       1.0  0.95165  0.96998  0.25786  1.0000
  I   I49       1.0  0.18204  0.95565  0.19385  1.0000
  I   I50       1.0  0.98166  0.03929  0.14325  1.0000
  I   I51       1.0  0.95030  0.08116  0.05149  1.0000
  I   I52       1.0  0.91517  0.28910  0.38340  1.0000
  I   I53       1.0  0.42628  0.72443  0.47795  1.0000
  I   I54       1.0  0.89842  0.77832  0.75477  1.0000
  I   I55       1.0  0.60473  0.99243  0.53786  1.0000
  I   I56       1.0  0.18466  0.47768  0.43871  1.0000
  I   I57       1.0  0.45275  0.13306  0.99304  1.0000
  I   I58       1.0  0.55733  0.44128  0.78207  1.0000
  I   I59       1.0  0.82328  0.13548  0.02378  1.0000
  I   I60       1.0  0.96262  0.63478  0.51328  1.0000
  I   I61       1.0  0.78283  0.52263  0.86307  1.0000
  I   I62       1.0  0.71358  0.53256  0.00214  1.0000
  I   I63       1.0  0.65587  0.01698  0.11511  1.0000
  I   I64       1.0  0.45828  0.48851  0.76084  1.0000
  I   I65       1.0  0.94215  0.78490  0.17474  1.0000
  I   I66       1.0  0.58561  0.32194  0.90025  1.0000
  I   I67       1.0  0.34719  0.58478  0.37260  1.0000
  I   I68       1.0  0.02816  0.87441  0.45514  1.0000
  I   I69       1.0  0.81910  0.89441  0.76804  1.0000
  I   I70       1.0  0.76199  0.72748  0.88012  1.0000
  I   I71       1.0  0.16618  0.10408  0.25347  1.0000
  I   I72       1.0  0.82399  0.12884  0.67639  1.0000
  I   I73       1.0  0.73821  0.21445  0.07743  1.0000
  I   I74       1.0  0.69620  0.95077  0.86127  1.0000
  I   I75       1.0  0.73558  0.91778  0.77932  1.0000
  I   I76       1.0  0.35139  0.22750  0.63311  1.0000
  I   I77       1.0  0.32775  0.23984  0.73316  1.0000
  I   I78       1.0  0.21046  0.89550  0.16637  1.0000
  I   I79       1.0  0.28751  0.56998  0.96386  1.0000
  I   I80       1.0  0.72512  0.06145  0.22971  1.0000
  I   I81       1.0  0.31013  0.87381  0.21072  1.0000
  I   I82       1.0  0.23757  0.24503  0.96990  1.0000
  I   I83       1.0  0.10759  0.30204  0.69550  1.0000
  I   I84       1.0  0.95935  0.23825  0.76238  1.0000
  I   I85       1.0  0.25200  0.09716  0.63360  1.0000
  I   I86       1.0  0.64786  0.27931  0.85799  1.0000
  I   I87       1.0  0.61004  0.63132  0.29447  1.0000
  I   I88       1.0  0.47665  0.68015  0.64346  1.0000
  I   I89       1.0  0.55935  0.21149  0.69671  1.0000
  I   I90       1.0  0.10921  0.76634  0.16117  1.0000
  I   I91       1.0  0.26749  0.54828  0.31313  1.0000
  I   I92       1.0  0.32992  0.75641  0.78791  1.0000
  I   I93       1.0  0.57494  0.10539  0.67477  1.0000
  I   I94       1.0  0.94102  0.04177  0.23382  1.0000
  I   I95       1.0  0.31124  0.93489  0.49680  1.0000
  I   I96       1.0  0.95912  0.20786  0.22195  1.0000
  I   I97       1.0  0.25861  0.13773  0.28996  1.0000
  I   I98       1.0  0.21809  0.86858  0.27981  1.0000
  I   I99       1.0  0.02979  0.01389  0.07743  1.0000
  I   I100      1.0  0.02415  0.64599  0.72301  1.0000
  I   I101      1.0  0.62040  0.35357  0.19250  1.0000
  I   I102      1.0  0.41392  0.44934  0.30836  1.0000
  I   I103      1.0  0.54128  0.97790  0.62926  1.0000
  I   I104      1.0  0.64947  0.94300  0.50946  1.0000
  I   I105      1.0  0.43162  0.22704  0.99260  1.0000
  I   I106      1.0  0.97930  0.67951  0.52258  1.0000
  I   I107      1.0  0.53421  0.49748  0.85779  1.0000
  I   I108      1.0  0.95766  0.59433  0.44640  1.0000
  I   I109      1.0  0.63352  0.59751  0.79862  1.0000
  I   I110      1.0  0.76312  0.48057  0.92628  1.0000
  I   I111      1.0  0.69973  0.96976  0.21234  1.0000
  I   I112      1.0  0.45687  0.98272  0.51173  1.0000
  I   I113      1.0  0.91627  0.79697  0.04351  1.0000
  I   I114      1.0  0.22566  0.59777  0.65417  1.0000
  I   I115      1.0  0.78384  0.77841  0.05935  1.0000
  I   I116      1.0  0.80618  0.70139  0.94590  1.0000
  I   I117      1.0  0.37828  0.60757  0.30191  1.0000
  I   I118      1.0  0.68342  0.73354  0.41362  1.0000
  I   I119      1.0  0.74846  0.77835  0.89325  1.0000
  I   I120      1.0  0.72232  0.15609  0.77678  1.0000
  I   I121      1.0  0.74756  0.12685  0.17493  1.0000
  I   I122      1.0  0.34341  0.38999  0.40634  1.0000
  I   I123      1.0  0.49784  0.00899  0.03976  1.0000
  I   I124      1.0  0.30980  0.87469  0.76412  1.0000
  I   I125      1.0  0.38488  0.95676  0.80147  1.0000
  I   I126      1.0  0.11024  0.79745  0.93370  1.0000
  I   I127      1.0  0.25492  0.64039  0.91997  1.0000
  I   I128      1.0  0.04064  0.59654  0.65348  1.0000
  I   I129      1.0  0.32672  0.91853  0.25209  1.0000
  I   I130      1.0  0.01928  0.17525  0.91650  1.0000
  I   I131      1.0  0.26229  0.29276  0.03528  1.0000
  I   I132      1.0  0.09546  0.32375  0.80810  1.0000
  I   I133      1.0  0.63084  0.59194  0.20419  1.0000
  I   I134      1.0  0.90692  0.16268  0.40886  1.0000
  I   I135      1.0  0.69665  0.21940  0.87783  1.0000
  I   I136      1.0  0.07273  0.79913  0.09336  1.0000
  I   I137      1.0  0.60044  0.31880  0.37629  1.0000
  I   I138      1.0  0.48743  0.28143  0.17626  1.0000
  I   I139      1.0  0.32438  0.49385  0.39011  1.0000
  I   I140      1.0  0.28435  0.74604  0.73589  1.0000
  I   I141      1.0  0.06549  0.46131  0.08295  1.0000
  I   I142      1.0  0.90151  0.08759  0.18872  1.0000
  I   I143      1.0  0.28861  0.95067  0.58936  1.0000
  I   I144      1.0  0.01526  0.18782  0.19040  1.0000
  I   I145      1.0  0.18022  0.85863  0.20030  1.0000
  I   I146      1.0  0.07824  0.03563  0.05468  1.0000
  I   I147      1.0  0.29581  0.13947  0.38135  1.0000
  I   I148      1.0  0.57638  0.38913  0.22229  1.0000
  I   I149      1.0  0.45887  0.42234  0.20253  1.0000
  I   I150      1.0  0.90826  0.76647  0.45786  1.0000
  I   I151      1.0  0.63552  0.90699  0.58417  1.0000
  I   I152      1.0  0.18210  0.56367  0.40542  1.0000
  I   I153      1.0  0.41469  0.19471  0.95593  1.0000
  I   I154      1.0  0.16576  0.90617  0.69760  1.0000
  I   I155      1.0  0.17110  0.47399  0.83984  1.0000
  I   I156      1.0  0.92147  0.64246  0.38367  1.0000
  I   I157      1.0  0.59830  0.57661  0.68972  1.0000
  I   I158      1.0  0.64405  0.98232  0.22341  1.0000
  I   I159      1.0  0.64405  0.61496  0.57090  1.0000
  I   I160      1.0  0.44325  0.94684  0.59589  1.0000
  I   I161      1.0  0.19302  0.57523  0.67765  1.0000
  I   I162      1.0  0.39649  0.02840  0.51593  1.0000
  I   I163      1.0  0.38455  0.62164  0.40880  1.0000
  I   I164      1.0  0.45125  0.49031  0.35624  1.0000
  I   I165      1.0  0.12560  0.60013  0.45946  1.0000
  I   I166      1.0  0.65760  0.69002  0.43734  1.0000
  I   I167      1.0  0.16663  0.08191  0.16624  1.0000
  I   I168      1.0  0.01185  0.78622  0.47066  1.0000
  I   I169      1.0  0.41927  0.32220  0.43096  1.0000
  I   I170      1.0  0.39134  0.35092  0.56945  1.0000
  I   I171      1.0  0.75588  0.20995  0.19049  1.0000
  I   I172      1.0  0.21957  0.97118  0.80952  1.0000
  I   I173      1.0  0.13966  0.75339  0.86271  1.0000
  I   I174      1.0  0.26844  0.91049  0.84712  1.0000
  I   I175      1.0  0.79232  0.06746  0.24490  1.0000
  I   I176      1.0  0.38165  0.86663  0.18272  1.0000
  I   I177      1.0  0.70293  0.63332  0.90488  1.0000
  I   I178      1.0  0.29806  0.23253  0.00558  1.0000
  I   I179      1.0  0.12436  0.34099  0.72808  1.0000
  I   I180      1.0  0.96296  0.19231  0.81360  1.0000
  I   I181      1.0  0.21337  0.04089  0.57780  1.0000
  I   I182      1.0  0.66136  0.28533  0.96457  1.0000
  I   I183      1.0  0.10103  0.31242  0.06469  1.0000
  I   I184      1.0  0.63902  0.31884  0.28755  1.0000
  I   I185      1.0  0.50886  0.32827  0.23193  1.0000
  I   I186      1.0  0.03166  0.85452  0.29234  1.0000
  I   I187      1.0  0.28497  0.80094  0.71248  1.0000
  I   I188      1.0  0.57630  0.14520  0.77620  1.0000
  I   I189      1.0  0.06133  0.36810  0.11784  1.0000
  I   I190      1.0  0.36220  0.92556  0.56267  1.0000
  I   I191      1.0  0.46356  0.41981  0.01598  1.0000
  I   I192      1.0  0.89063  0.00105  0.31150  1.0000
  I   I193      1.0  0.15174  0.78363  0.79465  1.0000
  I   I194      1.0  0.50560  0.42829  0.08291  1.0000
  I   I195      1.0  0.32129  0.12878  0.26159  1.0000
  I   I196      1.0  0.99557  0.60957  0.71999  1.0000
  I   I197      1.0  0.53926  0.47091  0.49646  1.0000
  I   I198      1.0  0.87417  0.80773  0.37502  1.0000
  I   I199      1.0  0.60375  0.96300  0.62839  1.0000
  I   I200      1.0  0.35197  0.38713  0.15515  1.0000
  I   I201      1.0  0.46212  0.17008  0.01507  1.0000
  I   I202      1.0  0.84709  0.12228  0.90749  1.0000
  I   I203      1.0  0.78425  0.86534  0.77428  1.0000
  I   I204      1.0  0.90530  0.65890  0.47978  1.0000
  I   I205      1.0  0.73202  0.56417  0.90876  1.0000
  I   I206      1.0  0.01079  0.88770  0.77232  1.0000
  I   I207      1.0  0.66296  0.64140  0.65680  1.0000
  I   I208      1.0  0.51364  0.45307  0.85698  1.0000
  I   I209      1.0  0.26726  0.55343  0.66045  1.0000
  I   I210      1.0  0.73875  0.66759  0.93910  1.0000
  I   I211      1.0  0.76013  0.74749  0.98587  1.0000
  I   I212      1.0  0.07548  0.85677  0.54174  1.0000
  I   I213      1.0  0.77146  0.90806  0.68252  1.0000
  I   I214      1.0  0.70115  0.68889  0.35391  1.0000
  I   I215      1.0  0.22892  0.06306  0.27218  1.0000
  I   I216      1.0  0.96744  0.85748  0.46655  1.0000
  I   I217      1.0  0.37229  0.33471  0.47453  1.0000
  I   I218      1.0  0.46956  0.96459  0.11704  1.0000
  I   I219      1.0  0.80384  0.15852  0.16296  1.0000
  I   I220      1.0  0.27571  0.27182  0.64752  1.0000
  I   I221      1.0  0.17333  0.78077  0.91858  1.0000
  I   I222      1.0  0.22723  0.98536  0.91834  1.0000
  I   I223      1.0  0.72942  0.08881  0.31336  1.0000
  I   I224      1.0  0.33721  0.95666  0.18412  1.0000
  I   I225      1.0  0.26609  0.57907  0.85918  1.0000
  I   I226      1.0  0.23637  0.26455  0.05600  1.0000
  I   I227      1.0  0.10670  0.34086  0.62377  1.0000
  I   I228      1.0  0.00910  0.20927  0.81749  1.0000
  I   I229      1.0  0.22787  0.09255  0.51786  1.0000
  I   I230      1.0  0.88056  0.12508  0.43026  1.0000
  I   I231      1.0  0.66883  0.61559  0.26644  1.0000
  I   I232      1.0  0.99987  0.84479  0.83801  1.0000
  I   I233      1.0  0.57342  0.20758  0.58546  1.0000
  I   I234      1.0  0.09720  0.83455  0.24550  1.0000
  I   I235      1.0  0.16009  0.96283  0.69231  1.0000
  I   I236      1.0  0.01315  0.48170  0.11652  1.0000
  I   I237      1.0  0.28581  0.48642  0.31044  1.0000
  I   I238      1.0  0.35296  0.75625  0.09305  1.0000
  I   I239      1.0  0.96561  0.23301  0.10644  1.0000
  I   I240      1.0  0.86000  0.06523  0.18874  1.0000
  I   I241      1.0  0.14077  0.97179  0.09441  1.0000
  I   I242      1.0  0.05808  0.01314  0.97872  1.0000
  I   I243      1.0  0.31054  0.08400  0.32120  1.0000
  I   I244      1.0  0.57210  0.37166  0.33020  1.0000
  I   I245      1.0  0.38226  0.68910  0.43640  1.0000
  I   I246      1.0  0.84234  0.77862  0.38026  1.0000
  I   I247      1.0  0.56025  0.02034  0.63618  1.0000
  I   I248      1.0  0.19036  0.55799  0.51188  1.0000
  I   I249      1.0  0.43307  0.19812  0.10561  1.0000
  I   I250      1.0  0.88871  0.10053  0.99903  1.0000
  I   I251      1.0  0.20201  0.52584  0.83401  1.0000
  I   I252      1.0  0.92449  0.69374  0.41559  1.0000
  I   I253      1.0  0.73863  0.52669  0.79159  1.0000
  I   I254      1.0  0.06632  0.82809  0.81555  1.0000
  I   I255      1.0  0.57319  0.62779  0.75304  1.0000
  I   I256      1.0  0.97792  0.75957  0.08525  1.0000
  I   I257      1.0  0.23690  0.54124  0.76507  1.0000
  I   I258      1.0  0.40190  0.97042  0.49823  1.0000
  I   I259      1.0  0.79811  0.71567  0.07801  1.0000
  I   I260      1.0  0.38734  0.53081  0.31911  1.0000
  I   I261      1.0  0.14982  0.53351  0.51683  1.0000
  I   I262      1.0  0.72297  0.67481  0.46101  1.0000
  I   I263      1.0  0.12853  0.06435  0.28608  1.0000
  I   I264      1.0  0.00741  0.82783  0.55023  1.0000
  I   I265      1.0  0.38961  0.35855  0.34926  1.0000
  I   I266      1.0  0.76313  0.91292  0.90011  1.0000
  I   I267      1.0  0.79653  0.19610  0.08831  1.0000
  I   I268      1.0  0.35518  0.93999  0.68772  1.0000
  I   I269      1.0  0.15554  0.70743  0.78396  1.0000
  I   I270      1.0  0.27498  0.97792  0.84533  1.0000
  I   I271      1.0  0.76717  0.03011  0.32417  1.0000
  I   I272      1.0  0.37778  0.91486  0.12749  1.0000
  I   I273      1.0  0.21705  0.61053  0.92764  1.0000
  I   I274      1.0  0.57875  0.52217  0.84157  1.0000
  I   I275      1.0  0.10143  0.36870  0.84175  1.0000
  I   I276      1.0  0.96610  0.25794  0.86281  1.0000
  I   I277      1.0  0.24093  0.29429  0.93678  1.0000
  I   I278      1.0  0.84073  0.19370  0.43376  1.0000
  I   I279      1.0  0.16693  0.25614  0.18980  1.0000
  I   I280      1.0  0.63097  0.36952  0.30877  1.0000
  I   I281      1.0  0.51518  0.22287  0.61346  1.0000
  I   I282      1.0  0.03652  0.82840  0.17494  1.0000
  I   I283      1.0  0.09796  0.96190  0.72872  1.0000
  I   I284      1.0  0.01900  0.53635  0.06588  1.0000
  I   I285      1.0  0.08564  0.30387  0.15733  1.0000
  I   I286      1.0  0.35741  0.69646  0.02251  1.0000
  I   I287      1.0  0.80967  0.10840  0.60807  1.0000
  I   I288      1.0  0.90892  0.01618  0.19465  1.0000
  I   I289      1.0  0.20615  0.93439  0.08244  1.0000
  I   I290      1.0  0.54059  0.39160  0.99019  1.0000
  I   I291      1.0  0.00329  0.06601  0.00122  1.0000
  I   I292      1.0  0.57967  0.33701  0.25972  1.0000
  I   I293      1.0  0.43555  0.68296  0.38199  1.0000
  I   I294      1.0  0.89744  0.83330  0.72498  1.0000
  I   I295      1.0  0.53776  0.01782  0.53193  1.0000
  I   I296      1.0  0.31916  0.44975  0.16408  1.0000
  I   I297      1.0  0.38341  0.23557  0.04624  1.0000
  I   I298      1.0  0.54759  0.46437  0.37368  1.0000
  I   I299      1.0  0.48374  0.50972  0.80086  1.0000
  I   I300      1.0  0.97256  0.64381  0.40897  1.0000
  I   I301      1.0  0.69761  0.58353  0.62043  1.0000
  I   I302      1.0  0.76204  0.52999  0.99960  1.0000
  I   I303      1.0  0.41643  0.68699  0.63108  1.0000
  I   I304      1.0  0.47305  0.00648  0.58865  1.0000
  I   I305      1.0  0.50572  0.45123  0.69100  1.0000
  I   I306      1.0  0.67563  0.20803  0.99267  1.0000
  I   I307      1.0  0.40469  0.55547  0.42510  1.0000
  I   I308      1.0  0.08423  0.87091  0.43878  1.0000
  I   I309      1.0  0.11138  0.51077  0.41472  1.0000
  I   I310      1.0  0.15103  0.94270  0.79449  1.0000
  I   I311      1.0  0.22707  0.06856  0.15733  1.0000
  I   I312      1.0  0.82645  0.07173  0.69193  1.0000
  I   I313      1.0  0.76190  0.15532  0.09498  1.0000
  I   I314      1.0  0.42651  0.29225  0.52102  1.0000
  I   I315      1.0  0.52657  0.95225  0.09601  1.0000
  I   I316      1.0  0.22340  0.03351  0.83297  1.0000
  I   I317      1.0  0.35101  0.00018  0.72496  1.0000
  I   I318      1.0  0.16093  0.74370  0.71877  1.0000
  I   I319      1.0  0.68870  0.69037  0.85280  1.0000
  I   I320      1.0  0.05517  0.57807  0.77381  1.0000
  I   I321      1.0  0.36242  0.85304  0.26717  1.0000
  I   I322      1.0  0.55519  0.55437  0.73267  1.0000
  I   I323      1.0  0.04585  0.38039  0.81406  1.0000
  I   I324      1.0  0.00784  0.22954  0.93761  1.0000
  I   I325      1.0  0.18451  0.09889  0.60839  1.0000
  I   I326      1.0  0.63626  0.25537  0.93628  1.0000
  I   I327      1.0  0.11942  0.27952  0.25452  1.0000
  I   I328      1.0  0.44130  0.67463  0.73653  1.0000
  I   I329      1.0  0.49425  0.29484  0.28018  1.0000
  I   I330      1.0  0.04810  0.87782  0.19971  1.0000
  I   I331      1.0  0.13210  0.23335  0.16646  1.0000
  I   I332      1.0  0.54766  0.51485  0.40416  1.0000
  I   I333      1.0  0.59162  0.15185  0.62570  1.0000
  I   I334      1.0  0.93943  0.00372  0.34544  1.0000
  I   I335      1.0  0.35772  0.88136  0.55972  1.0000
  I   I336      1.0  0.95941  0.26254  0.21833  1.0000
  I   I337      1.0  0.15800  0.90515  0.24825  1.0000
  I   I338      1.0  0.49034  0.45138  0.97190  1.0000
  I   I339      1.0  0.98114  0.02100  0.02741  1.0000
  I   I340      1.0  0.96363  0.24090  0.35018  1.0000
  I   I341      1.0  0.41319  0.48887  0.20912  1.0000
  I   I342      1.0  0.85537  0.82719  0.82304  1.0000
  I   I343      1.0  0.58288  0.94629  0.52994  1.0000
  I   I344      1.0  0.36053  0.42199  0.06602  1.0000
  I   I345      1.0  0.43107  0.15816  0.87314  1.0000
  I   I346      1.0  0.80194  0.76791  0.95682  1.0000
  I   I347      1.0  0.84384  0.07436  0.97378  1.0000
  I   I348      1.0  0.91876  0.71011  0.51704  1.0000
  I   I349      1.0  0.61727  0.63339  0.68817  1.0000
  I   I350      1.0  0.76253  0.46538  0.81098  1.0000
  I   I351      1.0  0.03044  0.87728  0.88545  1.0000
  I   I352      1.0  0.40681  0.00753  0.61543  1.0000
  I   I353      1.0  0.96264  0.81701  0.09565  1.0000
  I   I354      1.0  0.71111  0.23277  0.97806  1.0000
  I   I355      1.0  0.42321  0.56163  0.33576  1.0000
  I   I356      1.0  0.40854  0.49638  0.41002  1.0000
  I   I357      1.0  0.73808  0.97324  0.87404  1.0000
  I   I358      1.0  0.95806  0.81419  0.54950  1.0000
  I   I359      1.0  0.19232  0.03642  0.23668  1.0000
  I   I360      1.0  0.72093  0.18754  0.68537  1.0000
  I   I361      1.0  0.74043  0.17284  0.23987  1.0000
  I   I362      1.0  0.45067  0.32613  0.51208  1.0000
  I   I363      1.0  0.75813  0.95464  0.78576  1.0000
  I   I364      1.0  0.30375  0.84868  0.86923  1.0000
  I   I365      1.0  0.32339  0.29082  0.67545  1.0000
  I   I366      1.0  0.10525  0.76968  0.75907  1.0000
  I   I367      1.0  0.68467  0.66878  0.98732  1.0000
  I   I368      1.0  0.96099  0.26387  0.45635  1.0000
  I   I369      1.0  0.37756  0.91799  0.24680  1.0000
  I   I370      1.0  0.62087  0.54057  0.78482  1.0000
  I   I371      1.0  0.06844  0.39007  0.71239  1.0000
  I   I372      1.0  0.91663  0.25958  0.85800  1.0000
  I   I373      1.0  0.26188  0.03681  0.53026  1.0000
  I   I374      1.0  0.88340  0.13912  0.33131  1.0000
  I   I375      1.0  0.13316  0.31073  0.16889  1.0000
  I   I376      1.0  0.60766  0.36497  0.41359  1.0000
  I   I377      1.0  0.44357  0.34216  0.20552  1.0000
  I   I378      1.0  0.07467  0.79701  0.24914  1.0000
  I   I379      1.0  0.26501  0.51279  0.41991  1.0000
  I   I380      1.0  0.33928  0.75447  0.66313  1.0000
  I   I381      1.0  0.01151  0.49600  0.99836  1.0000
  I   I382      1.0  0.89056  0.05063  0.30263  1.0000
  I   I383      1.0  0.40589  0.70161  0.05804  1.0000
  I   I384      1.0  0.76452  0.18061  0.77730  1.0000
