data_image0
_chemical_formula_structural       Ti96I384
_chemical_formula_sum              "Ti96 I384"
_cell_length_a       79.9392
_cell_length_b       79.4937
_cell_length_c       38.9614
_cell_angle_alpha    88.7757
_cell_angle_beta     88.7757
_cell_angle_gamma    62.1586

_space_group_name_H-M_alt    "P 1"
_space_group_IT_number       1

loop_
  _space_group_symop_operation_xyz
  'x, y, z'

loop_
  _atom_site_type_symbol
  _atom_site_label
  _atom_site_symmetry_multiplicity
  _atom_site_fract_x
  _atom_site_fract_y
  _atom_site_fract_z
  _atom_site_occupancy
  Ti  Ti1       1.0  0.59442  0.64986  0.25089  1.0000
  Ti  Ti2       1.0  0.61930  0.95744  0.57978  1.0000
  Ti  Ti3       1.0  0.95409  0.01882  0.22222  1.0000
  Ti  Ti4       1.0  0.47833  0.73150  0.97481  1.0000
  Ti  Ti5       1.0  0.96115  0.68186  0.69423  1.0000
  Ti  Ti6       1.0  0.08546  0.90005  0.43111  1.0000
  Ti  Ti7       1.0  0.29902  0.26217  0.85169  1.0000
  Ti  Ti8       1.0  0.58950  0.36911  0.84146  1.0000
  Ti  Ti9       1.0  0.06523  0.15108  0.62897  1.0000
  Ti  Ti10      1.0  0.88858  0.37382  0.16625  1.0000
  Ti  Ti11      1.0  0.19531  0.85599  0.69356  1.0000
  Ti  Ti12      1.0  0.29548  0.99013  0.24273  1.0000
  Ti  Ti13      1.0  0.52970  0.59414  0.27958  1.0000
  Ti  Ti14      1.0  0.47259  0.78335  0.98040  1.0000
  Ti  Ti15      1.0  0.73023  0.20419  0.37723  1.0000
  Ti  Ti16      1.0  0.87540  0.45824  0.74861  1.0000
  Ti  Ti17      1.0  0.39845  0.11080  0.44986  1.0000
  Ti  Ti18      1.0  0.62387  0.26062  0.51579  1.0000
  Ti  Ti19      1.0  0.00135  0.15813  0.03953  1.0000
  Ti  Ti20      1.0  0.78301  0.63237  0.60269  1.0000
  Ti  Ti21      1.0  0.61552  0.40089  0.72874  1.0000
  Ti  Ti22      1.0  0.51652  0.21211  0.05720  1.0000
  Ti  Ti23      1.0  0.37893  0.28285  0.64920  1.0000
  Ti  Ti24      1.0  0.76209  0.52311  0.31354  1.0000
  Ti  Ti25      1.0  0.87158  0.08167  0.92798  1.0000
  Ti  Ti26      1.0  0.19270  0.78781  0.51081  1.0000
  Ti  Ti27      1.0  0.85203  0.84289  0.60617  1.0000
  Ti  Ti28      1.0  0.33737  0.13736  0.02989  1.0000
  Ti  Ti29      1.0  0.10828  0.58695  0.55562  1.0000
  Ti  Ti30      1.0  0.33931  0.61822  0.77548  1.0000
  Ti  Ti31      1.0  0.88714  0.86269  0.38895  1.0000
  Ti  Ti32      1.0  0.23295  0.17823  0.82818  1.0000
  Ti  Ti33      1.0  0.74665  0.34765  0.19136  1.0000
  Ti  Ti34      1.0  0.70391  0.62482  0.76699  1.0000
  Ti  Ti35      1.0  0.52159  0.14265  0.79875  1.0000
  Ti  Ti36      1.0  0.03235  0.92538  0.91914  1.0000
  Ti  Ti37      1.0  0.41206  0.92043  0.26975  1.0000
  Ti  Ti38      1.0  0.53332  0.58276  0.64297  1.0000
  Ti  Ti39      1.0  0.93202  0.33256  0.13519  1.0000
  Ti  Ti40      1.0  0.55386  0.05847  0.08845  1.0000
  Ti  Ti41      1.0  0.05913  0.14382  0.46768  1.0000
  Ti  Ti42      1.0  0.37915  0.34251  0.00977  1.0000
  Ti  Ti43      1.0  0.39198  0.61273  0.91517  1.0000
  Ti  Ti44      1.0  0.28418  0.46293  0.31947  1.0000
  Ti  Ti45      1.0  0.87991  0.09428  0.40426  1.0000
  Ti  Ti46      1.0  0.68355  0.84463  0.23027  1.0000
  Ti  Ti47      1.0  0.29383  0.47792  0.57621  1.0000
  Ti  Ti48      1.0  0.56373  0.83468  0.17824  1.0000
  Ti  Ti49      1.0  0.64337  0.98936  0.18244  1.0000
  Ti  Ti50      1.0  0.08574  0.21658  0.26263  1.0000
  Ti  Ti51      1.0  0.61413  0.00349  0.65585  1.0000
  Ti  Ti52      1.0  0.16179  0.54285  0.29514  1.0000
  Ti  Ti53      1.0  0.66646  0.22026  0.08853  1.0000
  Ti  Ti54      1.0  0.76795  0.96999  0.79612  1.0000
  Ti  Ti55      1.0  0.90179  0.69960  0.26869  1.0000
  Ti  Ti56      1.0  0.75501  0.96792  0.20472  1.0000
  Ti  Ti57      1.0  0.07673  0.10838  0.54735  1.0000
  Ti  Ti58      1.0  0.00062  0.91917  0.36513  1.0000
  Ti  Ti59      1.0  0.84490  0.46935  0.82973  1.0000
  Ti  Ti60      1.0  0.94800  0.18072  0.07187  1.0000
  Ti  Ti61      1.0  0.57844  0.07820  0.31931  1.0000
  Ti  Ti62      1.0  0.57287  0.57201  0.34371  1.0000
  Ti  Ti63      1.0  0.07994  0.79394  0.78235  1.0000
  Ti  Ti64      1.0  0.59483  0.24900  0.50446  1.0000
  Ti  Ti65      1.0  0.07928  0.23929  0.75629  1.0000
  Ti  Ti66      1.0  0.21767  0.95428  0.51941  1.0000
  Ti  Ti67      1.0  0.52851  0.77019  0.76879  1.0000
  Ti  Ti68      1.0  0.93144  0.75996  0.36831  1.0000
  Ti  Ti69      1.0  0.21100  0.80157  0.42588  1.0000
  Ti  Ti70      1.0  0.19619  0.77696  0.11911  1.0000
  Ti  Ti71      1.0  0.75214  0.47123  0.18546  1.0000
  Ti  Ti72      1.0  0.23409  0.48310  0.66683  1.0000
  Ti  Ti73      1.0  0.42215  0.60875  0.48752  1.0000
  Ti  Ti74      1.0  0.92734  0.05123  0.97560  1.0000
  Ti  Ti75      1.0  0.62062  0.97858  0.27018  1.0000
  Ti  Ti76      1.0  0.43882  0.80592  0.62324  1.0000
  Ti  Ti77      1.0  0.76887  0.19854  0.34202  1.0000
  Ti  Ti78      1.0  0.13178  0.55862  0.65204  1.0000
  Ti  Ti79      1.0  0.76953  0.08792  0.58646  1.0000
  Ti  Ti80      1.0  0.10592  0.49611  0.12316  1.0000
  Ti  Ti81      1.0  0.46995  0.25609  0.58291  1.0000
  Ti  Ti82      1.0  0.58552  0.62743  0.00796  1.0000
  Ti  Ti83      1.0  0.86502  0.12851  0.47252  1.0000
  Ti  Ti84      1.0  0.06504  0.87568  0.92323  1.0000
  Ti  Ti85      1.0  0.37058  0.93798  0.24534  1.0000
  Ti  Ti86      1.0  0.30409  0.19625  0.85415  1.0000
  Ti  Ti87      1.0  0.62336  0.77472  0.71180  1.0000
  Ti  Ti88      1.0  0.75531  0.23254  0.90733  1.0000
  Ti  Ti89      1.0  0.86080  0.19520  0.86948  1.0000
  Ti  Ti90      1.0  0.41331  0.05472  0.50707  1.0000
  Ti  Ti91      1.0  0.48180  0.39957  0.20540  1.0000
  Ti  Ti92      1.0  0.58918  0.56872  0.07873  1.0000
  Ti  Ti93      1.0  0.36405  0.90656  0.83103  1.0000
  Ti  Ti94      1.0  0.58550  0.81958  0.24181  1.0000
  Ti  Ti95      1.0  0.22744  0.83809  0.09545  1.0000
  Ti  Ti96      1.0  0.12237  0.16593  0.98316  1.0000
  I   I1        1.0  0.29261  0.50265  0.62527  1.0000
  I   I2        1.0  0.61862  0.03099  0.63715  1.0000
  I   I3        1.0  0.59639  0.99819  0.21856  1.0000
  I   I4        1.0  0.66893  0.20766  0.02852  1.0000
  I   I5        1.0  0.07932  0.91771  0.37485  1.0000
  I   I6        1.0  0.76217  0.94747  0.83949  1.0000
  I   I7        1.0  0.61947  0.33537  0.84062  1.0000
  I   I8        1.0  0.73431  0.94816  0.22085  1.0000
  I   I9        1.0  0.05412  0.14637  0.68594  1.0000
  I   I10       1.0  0.55846  0.08479  0.11979  1.0000
  I   I11       1.0  0.20316  0.81726  0.70126  1.0000
  I   I12       1.0  0.92714  0.70430  0.70111  1.0000
  I   I13       1.0  0.58269  0.55426  0.28529  1.0000
  I   I14       1.0  0.09950  0.76420  0.81112  1.0000
  I   I15       1.0  0.69785  0.20483  0.36613  1.0000
  I   I16       1.0  0.58349  0.04619  0.05351  1.0000
  I   I17       1.0  0.19004  0.98190  0.48526  1.0000
  I   I18       1.0  0.56823  0.24200  0.54082  1.0000
  I   I19       1.0  0.08753  0.82269  0.76180  1.0000
  I   I20       1.0  0.16343  0.87345  0.73392  1.0000
  I   I21       1.0  0.55622  0.40337  0.84228  1.0000
  I   I22       1.0  0.50437  0.24136  0.59996  1.0000
  I   I23       1.0  0.78619  0.23343  0.88491  1.0000
  I   I24       1.0  0.18726  0.75408  0.08471  1.0000
  I   I25       1.0  0.85020  0.06826  0.95951  1.0000
  I   I26       1.0  0.64328  0.95761  0.20589  1.0000
  I   I27       1.0  0.48474  0.16080  0.79707  1.0000
  I   I28       1.0  0.37065  0.12642  0.99520  1.0000
  I   I29       1.0  0.11926  0.53784  0.68085  1.0000
  I   I30       1.0  0.31637  0.63922  0.72972  1.0000
  I   I31       1.0  0.11702  0.46166  0.10598  1.0000
  I   I32       1.0  0.45650  0.22888  0.57673  1.0000
  I   I33       1.0  0.78992  0.08533  0.53286  1.0000
  I   I34       1.0  0.52406  0.10905  0.79681  1.0000
  I   I35       1.0  0.08187  0.85693  0.97804  1.0000
  I   I36       1.0  0.68756  0.60774  0.73657  1.0000
  I   I37       1.0  0.43524  0.92679  0.30679  1.0000
  I   I38       1.0  0.85876  0.39568  0.12695  1.0000
  I   I39       1.0  0.37312  0.94417  0.17778  1.0000
  I   I40       1.0  0.31041  0.45604  0.27062  1.0000
  I   I41       1.0  0.12136  0.19206  0.26103  1.0000
  I   I42       1.0  0.52583  0.06936  0.04518  1.0000
  I   I43       1.0  0.01261  0.88608  0.33499  1.0000
  I   I44       1.0  0.85740  0.09374  0.35892  1.0000
  I   I45       1.0  0.85790  0.16551  0.47084  1.0000
  I   I46       1.0  0.25971  0.81425  0.06493  1.0000
  I   I47       1.0  0.31439  0.44988  0.61793  1.0000
  I   I48       1.0  0.60199  0.81794  0.17897  1.0000
  I   I49       1.0  0.67872  0.97865  0.16180  1.0000
  I   I50       1.0  0.65393  0.94036  0.56409  1.0000
  I   I51       1.0  0.59506  0.97276  0.53073  1.0000
  I   I52       1.0  0.08590  0.51229  0.06709  1.0000
  I   I53       1.0  0.69194  0.20589  0.13613  1.0000
  I   I54       1.0  0.79053  0.98418  0.79560  1.0000
  I   I55       1.0  0.27904  0.23474  0.84799  1.0000
  I   I56       1.0  0.60313  0.39118  0.67425  1.0000
  I   I57       1.0  0.22735  0.81431  0.13775  1.0000
  I   I58       1.0  0.91499  0.34468  0.21279  1.0000
  I   I59       1.0  0.90218  0.43221  0.78149  1.0000
  I   I60       1.0  0.95658  0.14705  0.09030  1.0000
  I   I61       1.0  0.57128  0.54093  0.36247  1.0000
  I   I62       1.0  0.50150  0.62765  0.29279  1.0000
  I   I63       1.0  0.79787  0.63579  0.53603  1.0000
  I   I64       1.0  0.84076  0.44238  0.86438  1.0000
  I   I65       1.0  0.55781  0.03304  0.13282  1.0000
  I   I66       1.0  0.34205  0.15244  0.08059  1.0000
  I   I67       1.0  0.03063  0.16142  0.04276  1.0000
  I   I68       1.0  0.81451  0.61967  0.63539  1.0000
  I   I69       1.0  0.21014  0.74925  0.49689  1.0000
  I   I70       1.0  0.18468  0.80396  0.07235  1.0000
  I   I71       1.0  0.40337  0.28289  0.69656  1.0000
  I   I72       1.0  0.21955  0.50589  0.72313  1.0000
  I   I73       1.0  0.82448  0.87083  0.56485  1.0000
  I   I74       1.0  0.22510  0.78952  0.50063  1.0000
  I   I75       1.0  0.22283  0.76876  0.39442  1.0000
  I   I76       1.0  0.78399  0.18412  0.40091  1.0000
  I   I77       1.0  0.73805  0.20142  0.30224  1.0000
  I   I78       1.0  0.86494  0.89611  0.35753  1.0000
  I   I79       1.0  0.71801  0.37972  0.17488  1.0000
  I   I80       1.0  0.61295  0.64957  0.19456  1.0000
  I   I81       1.0  0.24427  0.14696  0.80073  1.0000
  I   I82       1.0  0.60369  0.64243  0.03434  1.0000
  I   I83       1.0  0.89507  0.12687  0.42341  1.0000
  I   I84       1.0  0.07496  0.90151  0.94091  1.0000
  I   I85       1.0  0.39492  0.89678  0.23669  1.0000
  I   I86       1.0  0.34315  0.10537  0.05824  1.0000
  I   I87       1.0  0.96874  0.31034  0.16380  1.0000
  I   I88       1.0  0.89384  0.34534  0.12792  1.0000
  I   I89       1.0  0.72102  0.64688  0.75302  1.0000
  I   I90       1.0  0.07252  0.23706  0.20271  1.0000
  I   I91       1.0  0.47854  0.39754  0.13664  1.0000
  I   I92       1.0  0.60538  0.53532  0.04831  1.0000
  I   I93       1.0  0.26969  0.49759  0.31104  1.0000
  I   I94       1.0  0.56459  0.79888  0.20080  1.0000
  I   I95       1.0  0.70166  0.83821  0.28638  1.0000
  I   I96       1.0  0.53981  0.22004  0.02860  1.0000
  I   I97       1.0  0.92928  0.05072  0.27271  1.0000
  I   I98       1.0  0.61977  0.64809  0.30151  1.0000
  I   I99       1.0  0.62684  0.99073  0.59237  1.0000
  I   I100      1.0  0.44825  0.80326  0.93914  1.0000
  I   I101      1.0  0.72706  0.26536  0.92452  1.0000
  I   I102      1.0  0.97169  0.70700  0.66490  1.0000
  I   I103      1.0  0.31453  0.17556  0.79872  1.0000
  I   I104      1.0  0.87043  0.71877  0.30433  1.0000
  I   I105      1.0  0.10694  0.10992  0.51316  1.0000
  I   I106      1.0  0.28870  0.98534  0.31612  1.0000
  I   I107      1.0  0.86105  0.39712  0.21329  1.0000
  I   I108      1.0  0.27872  0.02343  0.27122  1.0000
  I   I109      1.0  0.74458  0.23437  0.36491  1.0000
  I   I110      1.0  0.53731  0.58958  0.36768  1.0000
  I   I111      1.0  0.76662  0.67142  0.59919  1.0000
  I   I112      1.0  0.58731  0.28331  0.54717  1.0000
  I   I113      1.0  0.05722  0.25967  0.81091  1.0000
  I   I114      1.0  0.38621  0.09104  0.41251  1.0000
  I   I115      1.0  0.54347  0.74388  0.72641  1.0000
  I   I116      1.0  0.51139  0.79872  0.72521  1.0000
  I   I117      1.0  0.92234  0.74880  0.42461  1.0000
  I   I118      1.0  0.11459  0.18294  0.04489  1.0000
  I   I119      1.0  0.50866  0.76149  0.80888  1.0000
  I   I120      1.0  0.31675  0.48719  0.54392  1.0000
  I   I121      1.0  0.43678  0.59970  0.42680  1.0000
  I   I122      1.0  0.85438  0.11936  0.92754  1.0000
  I   I123      1.0  0.64666  0.99105  0.26165  1.0000
  I   I124      1.0  0.35509  0.58189  0.76442  1.0000
  I   I125      1.0  0.43499  0.81252  0.55896  1.0000
  I   I126      1.0  0.14972  0.53029  0.60282  1.0000
  I   I127      1.0  0.77428  0.32257  0.14722  1.0000
  I   I128      1.0  0.46133  0.81361  0.02369  1.0000
  I   I129      1.0  0.40100  0.28028  0.59728  1.0000
  I   I130      1.0  0.99694  0.94650  0.93613  1.0000
  I   I131      1.0  0.55225  0.63114  0.04458  1.0000
  I   I132      1.0  0.53613  0.14855  0.74380  1.0000
  I   I133      1.0  0.94433  0.35008  0.09338  1.0000
  I   I134      1.0  0.54916  0.58389  0.58857  1.0000
  I   I135      1.0  0.25074  0.95546  0.52401  1.0000
  I   I136      1.0  0.39457  0.35157  0.05420  1.0000
  I   I137      1.0  0.19237  0.53954  0.32201  1.0000
  I   I138      1.0  0.86866  0.18191  0.80759  1.0000
  I   I139      1.0  0.46059  0.41704  0.26446  1.0000
  I   I140      1.0  0.55998  0.56699  0.04832  1.0000
  I   I141      1.0  0.34052  0.91100  0.77664  1.0000
  I   I142      1.0  0.57117  0.80698  0.29123  1.0000
  I   I143      1.0  0.93359  0.01038  0.26646  1.0000
  I   I144      1.0  0.50801  0.22934  0.11630  1.0000
  I   I145      1.0  0.56455  0.65374  0.22291  1.0000
  I   I146      1.0  0.61650  0.92728  0.56168  1.0000
  I   I147      1.0  0.98736  0.00007  0.25143  1.0000
  I   I148      1.0  0.13598  0.54549  0.34170  1.0000
  I   I149      1.0  0.97161  0.64723  0.67532  1.0000
  I   I150      1.0  0.11622  0.90166  0.45423  1.0000
  I   I151      1.0  0.90295  0.72876  0.22265  1.0000
  I   I152      1.0  0.56361  0.36120  0.81113  1.0000
  I   I153      1.0  0.09881  0.11019  0.60930  1.0000
  I   I154      1.0  0.37089  0.59522  0.92380  1.0000
  I   I155      1.0  0.18856  0.84820  0.63278  1.0000
  I   I156      1.0  0.92643  0.20685  0.12070  1.0000
  I   I157      1.0  0.78541  0.21225  0.29548  1.0000
  I   I158      1.0  0.04408  0.79990  0.77421  1.0000
  I   I159      1.0  0.61009  0.07419  0.30731  1.0000
  I   I160      1.0  0.59263  0.23590  0.44481  1.0000
  I   I161      1.0  0.43008  0.08047  0.47587  1.0000
  I   I162      1.0  0.64324  0.27311  0.48280  1.0000
  I   I163      1.0  0.02233  0.12363  0.07142  1.0000
  I   I164      1.0  0.71183  0.83016  0.19018  1.0000
  I   I165      1.0  0.65066  0.37379  0.72948  1.0000
  I   I166      1.0  0.13052  0.18211  0.93081  1.0000
  I   I167      1.0  0.45715  0.29420  0.59525  1.0000
  I   I168      1.0  0.79146  0.48939  0.31893  1.0000
  I   I169      1.0  0.92685  0.03037  0.02536  1.0000
  I   I170      1.0  0.91014  0.05864  0.90855  1.0000
  I   I171      1.0  0.83852  0.82389  0.64542  1.0000
  I   I172      1.0  0.43744  0.77601  0.63610  1.0000
  I   I173      1.0  0.09416  0.57701  0.62097  1.0000
  I   I174      1.0  0.37011  0.62046  0.77415  1.0000
  I   I175      1.0  0.91862  0.85367  0.35545  1.0000
  I   I176      1.0  0.20690  0.17761  0.88034  1.0000
  I   I177      1.0  0.78173  0.10782  0.62139  1.0000
  I   I178      1.0  0.60249  0.62140  0.94891  1.0000
  I   I179      1.0  0.90998  0.09027  0.36835  1.0000
  I   I180      1.0  0.09360  0.86130  0.88000  1.0000
  I   I181      1.0  0.33119  0.95342  0.25765  1.0000
  I   I182      1.0  0.26687  0.28734  0.83536  1.0000
  I   I183      1.0  0.64013  0.74713  0.75413  1.0000
  I   I184      1.0  0.74924  0.22075  0.85377  1.0000
  I   I185      1.0  0.83572  0.21022  0.91973  1.0000
  I   I186      1.0  0.38297  0.35423  0.93949  1.0000
  I   I187      1.0  0.61864  0.55413  0.12021  1.0000
  I   I188      1.0  0.26463  0.45234  0.28282  1.0000
  I   I189      1.0  0.60745  0.80838  0.73468  1.0000
  I   I190      1.0  0.65027  0.86799  0.19651  1.0000
  I   I191      1.0  0.38136  0.09415  0.50018  1.0000
  I   I192      1.0  0.93575  0.04020  0.16894  1.0000
  I   I193      1.0  0.12380  0.59576  0.62155  1.0000
  I   I194      1.0  0.76851  0.61040  0.62147  1.0000
  I   I195      1.0  0.96941  0.99046  0.17823  1.0000
  I   I196      1.0  0.50194  0.70210  0.01889  1.0000
  I   I197      1.0  0.02245  0.93474  0.35563  1.0000
  I   I198      1.0  0.06294  0.91471  0.48839  1.0000
  I   I199      1.0  0.26406  0.18079  0.80471  1.0000
  I   I200      1.0  0.74796  0.97219  0.14174  1.0000
  I   I201      1.0  0.04754  0.13539  0.57555  1.0000
  I   I202      1.0  0.89032  0.47628  0.71004  1.0000
  I   I203      1.0  0.20090  0.78805  0.57880  1.0000
  I   I204      1.0  0.26943  0.98034  0.21514  1.0000
  I   I205      1.0  0.58683  0.57957  0.39460  1.0000
  I   I206      1.0  0.47403  0.71913  0.91624  1.0000
  I   I207      1.0  0.73035  0.21488  0.44371  1.0000
  I   I208      1.0  0.86499  0.44695  0.68032  1.0000
  I   I209      1.0  0.41317  0.03694  0.45102  1.0000
  I   I210      1.0  0.73940  0.08557  0.55259  1.0000
  I   I211      1.0  0.23122  0.76050  0.11884  1.0000
  I   I212      1.0  0.08381  0.78791  0.71104  1.0000
  I   I213      1.0  0.24752  0.79882  0.41947  1.0000
  I   I214      1.0  0.52239  0.17762  0.03720  1.0000
  I   I215      1.0  0.34596  0.30813  0.66659  1.0000
  I   I216      1.0  0.35050  0.94613  0.82417  1.0000
  I   I217      1.0  0.86318  0.07623  0.86793  1.0000
  I   I218      1.0  0.63207  0.94215  0.28906  1.0000
  I   I219      1.0  0.44528  0.61553  0.51890  1.0000
  I   I220      1.0  0.80126  0.16874  0.30054  1.0000
  I   I221      1.0  0.11997  0.55375  0.52517  1.0000
  I   I222      1.0  0.46544  0.81476  0.62431  1.0000
  I   I223      1.0  0.90102  0.86785  0.44865  1.0000
  I   I224      1.0  0.21347  0.20178  0.77485  1.0000
  I   I225      1.0  0.75485  0.36714  0.23604  1.0000
  I   I226      1.0  0.55755  0.66074  0.97596  1.0000
  I   I227      1.0  0.52821  0.15613  0.85216  1.0000
  I   I228      1.0  0.03273  0.89602  0.87647  1.0000
  I   I229      1.0  0.96693  0.94518  0.36183  1.0000
  I   I230      1.0  0.50997  0.56803  0.63442  1.0000
  I   I231      1.0  0.90878  0.39338  0.16807  1.0000
  I   I232      1.0  0.49450  0.79897  0.96047  1.0000
  I   I233      1.0  0.08001  0.14858  0.41750  1.0000
  I   I234      1.0  0.36791  0.14267  0.44147  1.0000
  I   I235      1.0  0.38435  0.63693  0.95950  1.0000
  I   I236      1.0  0.39321  0.87781  0.80591  1.0000
  I   I237      1.0  0.49901  0.42024  0.20482  1.0000
  I   I238      1.0  0.21423  0.87544  0.10563  1.0000
  I   I239      1.0  0.09966  0.15996  0.93656  1.0000
  I   I240      1.0  0.56120  0.85585  0.12216  1.0000
  I   I241      1.0  0.61164  0.61044  0.25228  1.0000
  I   I242      1.0  0.60840  0.96704  0.64751  1.0000
  I   I243      1.0  0.96504  0.75703  0.36977  1.0000
  I   I244      1.0  0.75876  0.20939  0.95989  1.0000
  I   I245      1.0  0.65509  0.25769  0.07441  1.0000
  I   I246      1.0  0.10127  0.86396  0.43593  1.0000
  I   I247      1.0  0.30161  0.27052  0.91673  1.0000
  I   I248      1.0  0.61846  0.43063  0.71225  1.0000
  I   I249      1.0  0.03703  0.18413  0.62122  1.0000
  I   I250      1.0  0.81020  0.49271  0.84561  1.0000
  I   I251      1.0  0.23014  0.85426  0.70515  1.0000
  I   I252      1.0  0.93111  0.19899  0.01544  1.0000
  I   I253      1.0  0.55327  0.60376  0.29208  1.0000
  I   I254      1.0  0.47095  0.75993  0.03994  1.0000
  I   I255      1.0  0.56506  0.10053  0.37095  1.0000
  I   I256      1.0  0.07286  0.20945  0.76257  1.0000
  I   I257      1.0  0.37820  0.94174  0.31534  1.0000
  I   I258      1.0  0.58902  0.28272  0.46657  1.0000
  I   I259      1.0  0.55919  0.77499  0.78776  1.0000
  I   I260      1.0  0.67551  0.81560  0.24439  1.0000
  I   I261      1.0  0.60243  0.38670  0.78680  1.0000
  I   I262      1.0  0.48010  0.24232  0.04334  1.0000
  I   I263      1.0  0.74159  0.50667  0.18841  1.0000
  I   I264      1.0  0.03959  0.94753  0.86583  1.0000
  I   I265      1.0  0.95881  0.02361  0.95628  1.0000
  I   I266      1.0  0.15672  0.80162  0.53583  1.0000
  I   I267      1.0  0.42034  0.58210  0.52164  1.0000
  I   I268      1.0  0.20160  0.95596  0.57665  1.0000
  I   I269      1.0  0.15897  0.55470  0.68919  1.0000
  I   I270      1.0  0.30815  0.16402  0.00870  1.0000
  I   I271      1.0  0.85429  0.85700  0.40413  1.0000
  I   I272      1.0  0.45803  0.26835  0.51968  1.0000
  I   I273      1.0  0.73164  0.33117  0.22039  1.0000
  I   I274      1.0  0.02146  0.15256  0.45162  1.0000
  I   I275      1.0  0.85571  0.82842  0.54782  1.0000
  I   I276      1.0  0.02913  0.90322  0.96993  1.0000
  I   I277      1.0  0.59452  0.59772  0.05557  1.0000
  I   I278      1.0  0.55459  0.58711  0.68397  1.0000
  I   I279      1.0  0.30160  0.44818  0.37459  1.0000
  I   I280      1.0  0.14761  0.57913  0.27315  1.0000
  I   I281      1.0  0.06167  0.10993  0.48383  1.0000
  I   I282      1.0  0.34450  0.35826  0.01470  1.0000
  I   I283      1.0  0.42617  0.58653  0.91757  1.0000
  I   I284      1.0  0.76545  0.55157  0.27462  1.0000
  I   I285      1.0  0.63946  0.76705  0.65161  1.0000
  I   I286      1.0  0.20393  0.83564  0.05574  1.0000
  I   I287      1.0  0.22996  0.45289  0.64808  1.0000
  I   I288      1.0  0.55549  0.85298  0.24161  1.0000
  I   I289      1.0  0.38904  0.63464  0.85985  1.0000
  I   I290      1.0  0.39988  0.03886  0.54725  1.0000
  I   I291      1.0  0.59850  0.01291  0.71588  1.0000
  I   I292      1.0  0.16184  0.52719  0.23582  1.0000
  I   I293      1.0  0.64755  0.21418  0.15194  1.0000
  I   I294      1.0  0.74166  0.00400  0.81642  1.0000
  I   I295      1.0  0.32582  0.21543  0.85358  1.0000
  I   I296      1.0  0.72654  0.99253  0.24712  1.0000
  I   I297      1.0  0.08383  0.07333  0.57323  1.0000
  I   I298      1.0  0.99814  0.91121  0.42846  1.0000
  I   I299      1.0  0.84196  0.45756  0.76255  1.0000
  I   I300      1.0  0.34299  0.90003  0.88744  1.0000
  I   I301      1.0  0.58786  0.04946  0.36328  1.0000
  I   I302      1.0  0.53315  0.59937  0.20945  1.0000
  I   I303      1.0  0.11039  0.23747  0.73132  1.0000
  I   I304      1.0  0.63214  0.27170  0.57625  1.0000
  I   I305      1.0  0.85209  0.49270  0.78759  1.0000
  I   I306      1.0  0.32406  0.27196  0.83522  1.0000
  I   I307      1.0  0.31264  0.99922  0.19873  1.0000
  I   I308      1.0  0.05825  0.21391  0.29490  1.0000
  I   I309      1.0  0.58915  0.36778  0.90356  1.0000
  I   I310      1.0  0.62996  0.02581  0.19728  1.0000
  I   I311      1.0  0.74225  0.47068  0.12013  1.0000
  I   I312      1.0  0.29023  0.46044  0.52257  1.0000
  I   I313      1.0  0.38927  0.63313  0.51281  1.0000
  I   I314      1.0  0.88864  0.07966  0.99774  1.0000
  I   I315      1.0  0.60584  0.99448  0.32751  1.0000
  I   I316      1.0  0.40636  0.82710  0.64527  1.0000
  I   I317      1.0  0.24051  0.92326  0.47716  1.0000
  I   I318      1.0  0.07770  0.60573  0.52557  1.0000
  I   I319      1.0  0.75287  0.12554  0.55649  1.0000
  I   I320      1.0  0.43860  0.74135  0.97482  1.0000
  I   I321      1.0  0.89466  0.68144  0.22654  1.0000
  I   I322      1.0  0.69022  0.64305  0.82578  1.0000
  I   I323      1.0  0.90177  0.05713  0.41174  1.0000
  I   I324      1.0  0.02990  0.95236  0.96527  1.0000
  I   I325      1.0  0.44230  0.90509  0.22769  1.0000
  I   I326      1.0  0.33076  0.17266  0.89855  1.0000
  I   I327      1.0  0.86390  0.09343  0.47830  1.0000
  I   I328      1.0  0.93671  0.30072  0.10447  1.0000
  I   I329      1.0  0.86601  0.22788  0.87416  1.0000
  I   I330      1.0  0.42425  0.10906  0.40599  1.0000
  I   I331      1.0  0.59356  0.77027  0.69307  1.0000
  I   I332      1.0  0.44555  0.04260  0.53913  1.0000
  I   I333      1.0  0.73291  0.59703  0.80014  1.0000
  I   I334      1.0  0.61259  0.82602  0.26591  1.0000
  I   I335      1.0  0.94825  0.72779  0.32800  1.0000
  I   I336      1.0  0.15673  0.13899  0.98579  1.0000
  I   I337      1.0  0.62364  0.98697  0.13041  1.0000
  I   I338      1.0  0.08200  0.25202  0.27843  1.0000
  I   I339      1.0  0.64422  0.99177  0.70074  1.0000
  I   I340      1.0  0.10247  0.48773  0.19057  1.0000
  I   I341      1.0  0.96571  0.68297  0.75954  1.0000
  I   I342      1.0  0.75551  0.96422  0.73898  1.0000
  I   I343      1.0  0.92765  0.67748  0.30872  1.0000
  I   I344      1.0  0.79007  0.94670  0.21538  1.0000
  I   I345      1.0  0.09615  0.15007  0.63862  1.0000
  I   I346      1.0  0.17707  0.78094  0.17752  1.0000
  I   I347      1.0  0.86376  0.47531  0.88666  1.0000
  I   I348      1.0  0.98407  0.14670  0.99666  1.0000
  I   I349      1.0  0.55460  0.06646  0.29331  1.0000
  I   I350      1.0  0.52340  0.56496  0.28251  1.0000
  I   I351      1.0  0.49406  0.75101  0.94253  1.0000
  I   I352      1.0  0.62683  0.22903  0.55100  1.0000
  I   I353      1.0  0.05788  0.25845  0.70215  1.0000
  I   I354      1.0  0.27509  0.19298  0.88713  1.0000
  I   I355      1.0  0.97434  0.19295  0.01349  1.0000
  I   I356      1.0  0.91165  0.78161  0.31850  1.0000
  I   I357      1.0  0.19291  0.83037  0.38932  1.0000
  I   I358      1.0  0.74010  0.51397  0.27731  1.0000
  I   I359      1.0  0.73020  0.45987  0.21604  1.0000
  I   I360      1.0  0.21095  0.50804  0.62968  1.0000
  I   I361      1.0  0.87598  0.85671  0.61611  1.0000
  I   I362      1.0  0.93479  0.07878  0.98865  1.0000
  I   I363      1.0  0.17600  0.81042  0.45786  1.0000
  I   I364      1.0  0.32798  0.64555  0.82825  1.0000
  I   I365      1.0  0.74560  0.16900  0.39096  1.0000
  I   I366      1.0  0.12235  0.60386  0.51764  1.0000
  I   I367      1.0  0.77959  0.05570  0.61627  1.0000
  I   I368      1.0  0.14026  0.49897  0.12413  1.0000
  I   I369      1.0  0.37408  0.25242  0.64566  1.0000
  I   I370      1.0  0.06246  0.16481  0.51380  1.0000
  I   I371      1.0  0.86192  0.12510  0.53517  1.0000
  I   I372      1.0  0.74184  0.54471  0.36782  1.0000
  I   I373      1.0  0.38808  0.96263  0.24184  1.0000
  I   I374      1.0  0.50844  0.62314  0.64766  1.0000
  I   I375      1.0  0.84960  0.13531  0.41112  1.0000
  I   I376      1.0  0.78729  0.45033  0.18821  1.0000
  I   I377      1.0  0.89339  0.18446  0.89525  1.0000
  I   I378      1.0  0.39547  0.30361  0.03498  1.0000
  I   I379      1.0  0.50794  0.36321  0.20169  1.0000
  I   I380      1.0  0.56841  0.58122  0.13065  1.0000
  I   I381      1.0  0.97808  0.17729  0.09837  1.0000
  I   I382      1.0  0.52940  0.84142  0.16912  1.0000
  I   I383      1.0  0.18309  0.89272  0.66795  1.0000
  I   I384      1.0  0.26414  0.47805  0.61699  1.0000
