data_image0
_chemical_formula_structural       Ti96I384
_chemical_formula_sum              "Ti96 I384"
_cell_length_a       61.9722
_cell_length_b       61.8443
_cell_length_c       30.1281
_cell_angle_alpha    88.7757
_cell_angle_beta     88.7757
_cell_angle_gamma    62.1586

_space_group_name_H-M_alt    "P 1"
_space_group_IT_number       1

loop_
  _space_group_symop_operation_xyz
  'x, y, z'

loop_
  _atom_site_type_symbol
  _atom_site_label
  _atom_site_symmetry_multiplicity
  _atom_site_fract_x
  _atom_site_fract_y
  _atom_site_fract_z
  _atom_site_occupancy
  Ti  Ti1       1.0  0.63058  0.96618  0.59531  1.0000
  Ti  Ti2       1.0  0.39967  0.17676  0.41692  1.0000
  Ti  Ti3       1.0  0.02599  0.54795  0.05894  1.0000
  Ti  Ti4       1.0  0.47149  0.46508  0.71921  1.0000
  Ti  Ti5       1.0  0.19294  0.74111  0.10696  1.0000
  Ti  Ti6       1.0  0.53476  0.07385  0.87742  1.0000
  Ti  Ti7       1.0  0.05247  0.91357  0.52527  1.0000
  Ti  Ti8       1.0  0.17068  0.56058  0.24015  1.0000
  Ti  Ti9       1.0  0.15662  0.93031  0.83279  1.0000
  Ti  Ti10      1.0  0.03608  0.84295  0.75646  1.0000
  Ti  Ti11      1.0  0.35263  0.46574  0.07076  1.0000
  Ti  Ti12      1.0  0.15976  0.73815  0.55305  1.0000
  Ti  Ti13      1.0  0.36952  0.38789  0.40474  1.0000
  Ti  Ti14      1.0  0.11160  0.05323  0.40791  1.0000
  Ti  Ti15      1.0  0.46696  0.79832  0.01492  1.0000
  Ti  Ti16      1.0  0.96891  0.49161  0.79991  1.0000
  Ti  Ti17      1.0  0.17088  0.23355  0.21533  1.0000
  Ti  Ti18      1.0  0.73328  0.58032  0.67495  1.0000
  Ti  Ti19      1.0  0.82864  0.99552  0.34729  1.0000
  Ti  Ti20      1.0  0.34789  0.16464  0.61368  1.0000
  Ti  Ti21      1.0  0.76953  0.28878  0.21384  1.0000
  Ti  Ti22      1.0  0.62007  0.81579  0.29480  1.0000
  Ti  Ti23      1.0  0.64122  0.82601  0.00994  1.0000
  Ti  Ti24      1.0  0.24590  0.83172  0.63036  1.0000
  Ti  Ti25      1.0  0.27906  0.28403  0.77184  1.0000
  Ti  Ti26      1.0  0.99045  0.24591  0.34158  1.0000
  Ti  Ti27      1.0  0.20984  0.52202  0.79106  1.0000
  Ti  Ti28      1.0  0.69839  0.50512  0.09428  1.0000
  Ti  Ti29      1.0  0.00847  0.07136  0.15768  1.0000
  Ti  Ti30      1.0  0.90698  0.43767  0.19789  1.0000
  Ti  Ti31      1.0  0.65578  0.34385  0.54408  1.0000
  Ti  Ti32      1.0  0.72566  0.08613  0.90332  1.0000
  Ti  Ti33      1.0  0.34615  0.85712  0.29191  1.0000
  Ti  Ti34      1.0  0.63012  0.81454  0.74033  1.0000
  Ti  Ti35      1.0  0.84283  0.34175  0.00635  1.0000
  Ti  Ti36      1.0  0.09663  0.52315  0.55301  1.0000
  Ti  Ti37      1.0  0.10336  0.16652  0.01073  1.0000
  Ti  Ti38      1.0  0.45895  0.28621  0.63586  1.0000
  Ti  Ti39      1.0  0.40628  0.28292  0.12864  1.0000
  Ti  Ti40      1.0  0.71042  0.82488  0.44323  1.0000
  Ti  Ti41      1.0  0.46516  0.68795  0.42858  1.0000
  Ti  Ti42      1.0  0.87660  0.89316  0.74245  1.0000
  Ti  Ti43      1.0  0.33964  0.09343  0.02500  1.0000
  Ti  Ti44      1.0  0.81229  0.63212  0.32243  1.0000
  Ti  Ti45      1.0  0.45491  0.68029  0.73709  1.0000
  Ti  Ti46      1.0  0.18587  0.04145  0.10166  1.0000
  Ti  Ti47      1.0  0.80724  0.14159  0.05769  1.0000
  Ti  Ti48      1.0  0.40259  0.54481  0.26406  1.0000
  Ti  Ti49      1.0  0.63994  0.98800  0.51750  1.0000
  Ti  Ti50      1.0  0.75861  0.17630  0.85569  1.0000
  Ti  Ti51      1.0  0.46017  0.17454  0.44440  1.0000
  Ti  Ti52      1.0  0.44159  0.48976  0.65126  1.0000
  Ti  Ti53      1.0  0.19792  0.78865  0.12315  1.0000
  Ti  Ti54      1.0  0.48547  0.07152  0.86792  1.0000
  Ti  Ti55      1.0  0.05825  0.89551  0.43599  1.0000
  Ti  Ti56      1.0  0.17696  0.59295  0.35392  1.0000
  Ti  Ti57      1.0  0.15265  0.93354  0.71710  1.0000
  Ti  Ti58      1.0  0.29117  0.16313  0.92959  1.0000
  Ti  Ti59      1.0  0.01594  0.83992  0.84953  1.0000
  Ti  Ti60      1.0  0.19165  0.74563  0.62674  1.0000
  Ti  Ti61      1.0  0.42965  0.79036  0.92002  1.0000
  Ti  Ti62      1.0  0.29880  0.40871  0.47078  1.0000
  Ti  Ti63      1.0  0.15285  0.99233  0.34162  1.0000
  Ti  Ti64      1.0  0.79110  0.54735  0.59525  1.0000
  Ti  Ti65      1.0  0.00108  0.53270  0.79854  1.0000
  Ti  Ti66      1.0  0.52909  0.25453  0.81821  1.0000
  Ti  Ti67      1.0  0.86718  0.02295  0.36181  1.0000
  Ti  Ti68      1.0  0.30887  0.21024  0.51810  1.0000
  Ti  Ti69      1.0  0.68717  0.32609  0.23619  1.0000
  Ti  Ti70      1.0  0.62741  0.76539  0.23973  1.0000
  Ti  Ti71      1.0  0.61962  0.88768  0.00458  1.0000
  Ti  Ti72      1.0  0.91144  0.87807  0.06765  1.0000
  Ti  Ti73      1.0  0.24087  0.55536  0.73082  1.0000
  Ti  Ti74      1.0  0.27103  0.33502  0.78340  1.0000
  Ti  Ti75      1.0  0.00769  0.17612  0.32147  1.0000
  Ti  Ti76      1.0  0.87636  0.40406  0.25593  1.0000
  Ti  Ti77      1.0  0.72451  0.52102  0.15460  1.0000
  Ti  Ti78      1.0  0.98037  0.06345  0.29303  1.0000
  Ti  Ti79      1.0  0.28420  0.87133  0.25234  1.0000
  Ti  Ti80      1.0  0.71868  0.38781  0.50144  1.0000
  Ti  Ti81      1.0  0.70188  0.07691  0.99227  1.0000
  Ti  Ti82      1.0  0.67553  0.76676  0.71155  1.0000
  Ti  Ti83      1.0  0.76215  0.38140  0.94545  1.0000
  Ti  Ti84      1.0  0.14900  0.47911  0.54852  1.0000
  Ti  Ti85      1.0  0.06643  0.25017  0.96772  1.0000
  Ti  Ti86      1.0  0.46895  0.25019  0.73224  1.0000
  Ti  Ti87      1.0  0.45828  0.27664  0.09661  1.0000
  Ti  Ti88      1.0  0.77068  0.80006  0.42521  1.0000
  Ti  Ti89      1.0  0.50677  0.71181  0.47471  1.0000
  Ti  Ti90      1.0  0.82629  0.89816  0.64726  1.0000
  Ti  Ti91      1.0  0.40043  0.66782  0.70193  1.0000
  Ti  Ti92      1.0  0.89998  0.21683  0.56477  1.0000
  Ti  Ti93      1.0  0.79614  0.60085  0.18513  1.0000
  Ti  Ti94      1.0  0.40582  0.53300  0.16656  1.0000
  Ti  Ti95      1.0  0.24365  0.98400  0.12066  1.0000
  Ti  Ti96      1.0  0.83593  0.10410  0.93432  1.0000
  I   I1        1.0  0.85142  0.05715  0.92214  1.0000
  I   I2        1.0  0.49982  0.18050  0.40994  1.0000
  I   I3        1.0  0.59853  0.00758  0.64022  1.0000
  I   I4        1.0  0.17445  0.76698  0.17859  1.0000
  I   I5        1.0  0.49812  0.08783  0.93921  1.0000
  I   I6        1.0  0.53108  0.02605  0.88255  1.0000
  I   I7        1.0  0.17856  0.55928  0.41843  1.0000
  I   I8        1.0  0.15891  0.62478  0.41944  1.0000
  I   I9        1.0  0.15375  0.89683  0.76265  1.0000
  I   I10       1.0  0.07046  0.86071  0.75639  1.0000
  I   I11       1.0  0.37073  0.47280  0.98391  1.0000
  I   I12       1.0  0.21476  0.69160  0.09227  1.0000
  I   I13       1.0  0.32056  0.43389  0.43224  1.0000
  I   I14       1.0  0.18059  0.95061  0.38680  1.0000
  I   I15       1.0  0.46267  0.81147  0.92080  1.0000
  I   I16       1.0  0.00522  0.48601  0.74970  1.0000
  I   I17       1.0  0.52206  0.28512  0.88857  1.0000
  I   I18       1.0  0.76653  0.59573  0.63652  1.0000
  I   I19       1.0  0.29650  0.19630  0.61565  1.0000
  I   I20       1.0  0.35490  0.42778  0.03871  1.0000
  I   I21       1.0  0.67183  0.32104  0.16065  1.0000
  I   I22       1.0  0.57652  0.92465  0.98268  1.0000
  I   I23       1.0  0.67553  0.82048  0.06521  1.0000
  I   I24       1.0  0.62597  0.80215  0.19241  1.0000
  I   I25       1.0  0.29006  0.36199  0.80450  1.0000
  I   I26       1.0  0.99623  0.27128  0.27563  1.0000
  I   I27       1.0  0.25079  0.53906  0.81674  1.0000
  I   I28       1.0  0.70057  0.55373  0.21825  1.0000
  I   I29       1.0  0.02113  0.03709  0.34118  1.0000
  I   I30       1.0  0.87947  0.36167  0.26970  1.0000
  I   I31       1.0  0.76040  0.35420  0.48521  1.0000
  I   I32       1.0  0.67219  0.11943  0.95368  1.0000
  I   I33       1.0  0.31769  0.83924  0.19796  1.0000
  I   I34       1.0  0.81723  0.35777  0.93441  1.0000
  I   I35       1.0  0.13620  0.52100  0.59992  1.0000
  I   I36       1.0  0.58166  0.83223  0.74548  1.0000
  I   I37       1.0  0.10836  0.17556  0.08938  1.0000
  I   I38       1.0  0.43149  0.25301  0.05295  1.0000
  I   I39       1.0  0.05802  0.20819  0.99379  1.0000
  I   I40       1.0  0.48030  0.72783  0.54968  1.0000
  I   I41       1.0  0.82103  0.85673  0.62750  1.0000
  I   I42       1.0  0.78963  0.76685  0.49664  1.0000
  I   I43       1.0  0.27305  0.14229  0.87975  1.0000
  I   I44       1.0  0.80925  0.59792  0.10186  1.0000
  I   I45       1.0  0.42924  0.68294  0.66035  1.0000
  I   I46       1.0  0.16952  0.01970  0.04418  1.0000
  I   I47       1.0  0.85276  0.12385  0.00780  1.0000
  I   I48       1.0  0.42975  0.56635  0.27034  1.0000
  I   I49       1.0  0.66895  0.97464  0.44833  1.0000
  I   I50       1.0  0.40687  0.13464  0.44525  1.0000
  I   I51       1.0  0.37415  0.22607  0.41334  1.0000
  I   I52       1.0  0.48762  0.42476  0.76619  1.0000
  I   I53       1.0  0.16176  0.82183  0.07727  1.0000
  I   I54       1.0  0.47580  0.05533  0.78336  1.0000
  I   I55       1.0  0.06191  0.94269  0.58833  1.0000
  I   I56       1.0  0.20557  0.55074  0.29467  1.0000
  I   I57       1.0  0.20245  0.90435  0.81243  1.0000
  I   I58       1.0  0.04879  0.82409  0.67741  1.0000
  I   I59       1.0  0.99840  0.88364  0.73804  1.0000
  I   I60       1.0  0.14680  0.70486  0.53225  1.0000
  I   I61       1.0  0.34452  0.36603  0.46487  1.0000
  I   I62       1.0  0.25592  0.45149  0.47620  1.0000
  I   I63       1.0  0.11146  0.06585  0.49282  1.0000
  I   I64       1.0  0.97208  0.51604  0.87338  1.0000
  I   I65       1.0  0.99107  0.57090  0.84303  1.0000
  I   I66       1.0  0.54352  0.27341  0.75725  1.0000
  I   I67       1.0  0.89440  0.03562  0.30420  1.0000
  I   I68       1.0  0.39432  0.13659  0.61011  1.0000
  I   I69       1.0  0.80184  0.25929  0.26633  1.0000
  I   I70       1.0  0.63967  0.76808  0.33171  1.0000
  I   I71       1.0  0.67046  0.81355  0.94196  1.0000
  I   I72       1.0  0.89347  0.84726  0.05583  1.0000
  I   I73       1.0  0.21935  0.50942  0.87195  1.0000
  I   I74       1.0  0.03171  0.20944  0.30939  1.0000
  I   I75       1.0  0.99643  0.20646  0.40170  1.0000
  I   I76       1.0  0.71393  0.48404  0.19121  1.0000
  I   I77       1.0  0.74899  0.53816  0.10777  1.0000
  I   I78       1.0  0.00919  0.11019  0.12471  1.0000
  I   I79       1.0  0.24819  0.90607  0.19591  1.0000
  I   I80       1.0  0.68337  0.39865  0.57192  1.0000
  I   I81       1.0  0.77086  0.07979  0.88949  1.0000
  I   I82       1.0  0.65111  0.78030  0.80963  1.0000
  I   I83       1.0  0.83039  0.30781  0.01322  1.0000
  I   I84       1.0  0.07999  0.49543  0.59823  1.0000
  I   I85       1.0  0.06889  0.28179  0.01812  1.0000
  I   I86       1.0  0.42810  0.28567  0.70403  1.0000
  I   I87       1.0  0.44898  0.24660  0.17299  1.0000
  I   I88       1.0  0.67296  0.86530  0.47135  1.0000
  I   I89       1.0  0.45621  0.67346  0.35100  1.0000
  I   I90       1.0  0.84643  0.91481  0.81225  1.0000
  I   I91       1.0  0.41234  0.68434  0.77889  1.0000
  I   I92       1.0  0.94171  0.19304  0.59705  1.0000
  I   I93       1.0  0.80901  0.55300  0.17947  1.0000
  I   I94       1.0  0.41925  0.52149  0.34164  1.0000
  I   I95       1.0  0.27581  0.97815  0.18265  1.0000
  I   I96       1.0  0.86520  0.11238  0.87912  1.0000
  I   I97       1.0  0.06120  0.56107  0.05680  1.0000
  I   I98       1.0  0.66314  0.98319  0.60303  1.0000
  I   I99       1.0  0.42284  0.17197  0.49385  1.0000
  I   I100      1.0  0.41567  0.49837  0.73596  1.0000
  I   I101      1.0  0.42945  0.45019  0.66525  1.0000
  I   I102      1.0  0.15223  0.73552  0.11767  1.0000
  I   I103      1.0  0.03629  0.89585  0.58887  1.0000
  I   I104      1.0  0.05525  0.85689  0.45659  1.0000
  I   I105      1.0  0.15041  0.96394  0.89117  1.0000
  I   I106      1.0  0.19418  0.71883  0.68916  1.0000
  I   I107      1.0  0.01036  0.81910  0.77609  1.0000
  I   I108      1.0  0.20901  0.71091  0.55741  1.0000
  I   I109      1.0  0.41794  0.82523  0.99166  1.0000
  I   I110      1.0  0.40311  0.33953  0.40386  1.0000
  I   I111      1.0  0.09665  0.02319  0.43408  1.0000
  I   I112      1.0  0.78494  0.51357  0.55068  1.0000
  I   I113      1.0  0.95229  0.54367  0.76749  1.0000
  I   I114      1.0  0.15826  0.24340  0.29611  1.0000
  I   I115      1.0  0.82008  0.04360  0.38971  1.0000
  I   I116      1.0  0.89410  0.97489  0.37691  1.0000
  I   I117      1.0  0.33046  0.15961  0.52456  1.0000
  I   I118      1.0  0.60859  0.74260  0.19328  1.0000
  I   I119      1.0  0.59747  0.83702  0.37514  1.0000
  I   I120      1.0  0.93326  0.88546  0.13511  1.0000
  I   I121      1.0  0.25374  0.50752  0.70199  1.0000
  I   I122      1.0  0.31922  0.28998  0.79750  1.0000
  I   I123      1.0  0.95606  0.23606  0.30672  1.0000
  I   I124      1.0  0.93313  0.43045  0.11696  1.0000
  I   I125      1.0  0.66356  0.54984  0.12540  1.0000
  I   I126      1.0  0.96098  0.08921  0.36991  1.0000
  I   I127      1.0  0.31606  0.89814  0.24123  1.0000
  I   I128      1.0  0.64945  0.30806  0.51622  1.0000
  I   I129      1.0  0.74400  0.03539  0.97837  1.0000
  I   I130      1.0  0.05768  0.56032  0.59792  1.0000
  I   I131      1.0  0.62770  0.84316  0.81302  1.0000
  I   I132      1.0  0.75812  0.42110  0.89921  1.0000
  I   I133      1.0  0.37943  0.31413  0.06812  1.0000
  I   I134      1.0  0.44820  0.33048  0.65496  1.0000
  I   I135      1.0  0.47592  0.22714  0.65835  1.0000
  I   I136      1.0  0.92289  0.87908  0.76215  1.0000
  I   I137      1.0  0.72677  0.83895  0.37003  1.0000
  I   I138      1.0  0.42198  0.69608  0.45868  1.0000
  I   I139      1.0  0.47829  0.66714  0.81387  1.0000
  I   I140      1.0  0.89353  0.26194  0.56038  1.0000
  I   I141      1.0  0.84198  0.65159  0.31826  1.0000
  I   I142      1.0  0.43968  0.49789  0.21619  1.0000
  I   I143      1.0  0.27355  0.94135  0.09597  1.0000
  I   I144      1.0  0.82461  0.12051  0.13016  1.0000
  I   I145      1.0  0.59976  0.99029  0.47258  1.0000
  I   I146      1.0  0.44858  0.21603  0.48601  1.0000
  I   I147      1.0  0.98677  0.58755  0.07200  1.0000
  I   I148      1.0  0.40164  0.53249  0.64214  1.0000
  I   I149      1.0  0.22637  0.79770  0.05749  1.0000
  I   I150      1.0  0.54615  0.05833  0.79807  1.0000
  I   I151      1.0  0.02958  0.92289  0.36350  1.0000
  I   I152      1.0  0.14320  0.59769  0.29841  1.0000
  I   I153      1.0  0.11045  0.95832  0.78743  1.0000
  I   I154      1.0  0.28690  0.12878  0.00734  1.0000
  I   I155      1.0  0.37607  0.45307  0.14382  1.0000
  I   I156      1.0  0.18475  0.77560  0.54849  1.0000
  I   I157      1.0  0.45655  0.80727  0.10332  1.0000
  I   I158      1.0  0.18281  0.00112  0.29115  1.0000
  I   I159      1.0  0.45549  0.76930  0.85361  1.0000
  I   I160      1.0  0.79392  0.57177  0.52367  1.0000
  I   I161      1.0  0.20894  0.23657  0.18707  1.0000
  I   I162      1.0  0.69683  0.57175  0.69441  1.0000
  I   I163      1.0  0.88342  0.03412  0.43729  1.0000
  I   I164      1.0  0.32034  0.20810  0.43640  1.0000
  I   I165      1.0  0.65933  0.31733  0.29805  1.0000
  I   I166      1.0  0.66260  0.81301  0.28453  1.0000
  I   I167      1.0  0.60839  0.86072  0.95327  1.0000
  I   I168      1.0  0.20061  0.84508  0.61887  1.0000
  I   I169      1.0  0.23138  0.31691  0.76551  1.0000
  I   I170      1.0  0.28943  0.26948  0.69220  1.0000
  I   I171      1.0  0.21647  0.47895  0.76872  1.0000
  I   I172      1.0  0.86588  0.43339  0.17321  1.0000
  I   I173      1.0  0.00426  0.03489  0.21588  1.0000
  I   I174      1.0  0.93730  0.44693  0.23987  1.0000
  I   I175      1.0  0.61923  0.38000  0.50280  1.0000
  I   I176      1.0  0.67388  0.05626  0.00523  1.0000
  I   I177      1.0  0.26570  0.84326  0.27961  1.0000
  I   I178      1.0  0.68341  0.75360  0.62917  1.0000
  I   I179      1.0  0.84564  0.34903  0.09424  1.0000
  I   I180      1.0  0.19216  0.48180  0.53061  1.0000
  I   I181      1.0  0.14685  0.14112  0.98674  1.0000
  I   I182      1.0  0.44773  0.23062  0.78393  1.0000
  I   I183      1.0  0.37796  0.30539  0.19792  1.0000
  I   I184      1.0  0.74604  0.83645  0.47906  1.0000
  I   I185      1.0  0.51066  0.68404  0.39787  1.0000
  I   I186      1.0  0.78039  0.92648  0.66365  1.0000
  I   I187      1.0  0.88902  0.20159  0.49131  1.0000
  I   I188      1.0  0.80362  0.59459  0.28515  1.0000
  I   I189      1.0  0.49541  0.64048  0.70425  1.0000
  I   I190      1.0  0.18865  0.08065  0.06704  1.0000
  I   I191      1.0  0.71812  0.16769  0.86917  1.0000
  I   I192      1.0  0.38288  0.58256  0.16204  1.0000
  I   I193      1.0  0.62087  0.03429  0.51204  1.0000
  I   I194      1.0  0.75129  0.16662  0.77042  1.0000
  I   I195      1.0  0.02007  0.52782  0.98628  1.0000
  I   I196      1.0  0.50097  0.44978  0.65098  1.0000
  I   I197      1.0  0.35403  0.06398  0.08831  1.0000
  I   I198      1.0  0.48349  0.11144  0.83772  1.0000
  I   I199      1.0  0.09401  0.87463  0.38351  1.0000
  I   I200      1.0  0.21747  0.59578  0.36609  1.0000
  I   I201      1.0  0.14866  0.90079  0.88089  1.0000
  I   I202      1.0  0.96725  0.86957  0.84396  1.0000
  I   I203      1.0  0.78937  0.31770  0.19174  1.0000
  I   I204      1.0  0.14015  0.76664  0.47947  1.0000
  I   I205      1.0  0.27874  0.38667  0.41837  1.0000
  I   I206      1.0  0.14106  0.96437  0.29870  1.0000
  I   I207      1.0  0.38259  0.81606  0.90734  1.0000
  I   I208      1.0  0.92650  0.49621  0.78567  1.0000
  I   I209      1.0  0.12850  0.25820  0.17740  1.0000
  I   I210      1.0  0.70102  0.62841  0.64569  1.0000
  I   I211      1.0  0.84412  0.95724  0.29620  1.0000
  I   I212      1.0  0.34071  0.13051  0.64825  1.0000
  I   I213      1.0  0.72352  0.34031  0.20587  1.0000
  I   I214      1.0  0.58307  0.79645  0.26688  1.0000
  I   I215      1.0  0.63408  0.78975  0.04345  1.0000
  I   I216      1.0  0.26638  0.80243  0.70085  1.0000
  I   I217      1.0  0.28747  0.24300  0.80246  1.0000
  I   I218      1.0  0.98078  0.18828  0.24690  1.0000
  I   I219      1.0  0.19404  0.56569  0.73760  1.0000
  I   I220      1.0  0.68426  0.47255  0.09084  1.0000
  I   I221      1.0  0.04974  0.03855  0.12655  1.0000
  I   I222      1.0  0.87332  0.48135  0.17243  1.0000
  I   I223      1.0  0.65316  0.34827  0.62781  1.0000
  I   I224      1.0  0.70063  0.05871  0.90561  1.0000
  I   I225      1.0  0.35698  0.81091  0.29219  1.0000
  I   I226      1.0  0.70314  0.72777  0.75796  1.0000
  I   I227      1.0  0.88859  0.32795  0.99324  1.0000
  I   I228      1.0  0.12611  0.50765  0.48395  1.0000
  I   I229      1.0  0.01760  0.26692  0.97456  1.0000
  I   I230      1.0  0.48667  0.28999  0.57576  1.0000
  I   I231      1.0  0.46806  0.29736  0.03190  1.0000
  I   I232      1.0  0.67686  0.80893  0.41751  1.0000
  I   I233      1.0  0.45813  0.73372  0.43473  1.0000
  I   I234      1.0  0.87748  0.86590  0.66882  1.0000
  I   I235      1.0  0.33582  0.13386  0.96736  1.0000
  I   I236      1.0  0.77733  0.67925  0.33986  1.0000
  I   I237      1.0  0.46562  0.71640  0.74075  1.0000
  I   I238      1.0  0.23281  0.01902  0.04999  1.0000
  I   I239      1.0  0.79759  0.11120  0.99809  1.0000
  I   I240      1.0  0.38204  0.52340  0.10621  1.0000
  I   I241      1.0  0.59784  0.95280  0.62565  1.0000
  I   I242      1.0  0.37400  0.17181  0.34828  1.0000
  I   I243      1.0  0.02615  0.52025  0.12821  1.0000
  I   I244      1.0  0.48451  0.48630  0.77791  1.0000
  I   I245      1.0  0.21256  0.79950  0.20074  1.0000
  I   I246      1.0  0.57392  0.05251  0.92739  1.0000
  I   I247      1.0  0.09650  0.86988  0.51684  1.0000
  I   I248      1.0  0.21208  0.51656  0.21080  1.0000
  I   I249      1.0  0.19393  0.90306  0.67896  1.0000
  I   I250      1.0  0.02255  0.87947  0.84579  1.0000
  I   I251      1.0  0.30735  0.48304  0.09841  1.0000
  I   I252      1.0  0.23145  0.74750  0.64035  1.0000
  I   I253      1.0  0.36962  0.40656  0.32931  1.0000
  I   I254      1.0  0.16375  0.01104  0.41892  1.0000
  I   I255      1.0  0.47931  0.75376  0.99295  1.0000
  I   I256      1.0  0.04648  0.49977  0.82715  1.0000
  I   I257      1.0  0.17749  0.18988  0.23876  1.0000
  I   I258      1.0  0.83112  0.53850  0.62730  1.0000
  I   I259      1.0  0.78539  0.01037  0.31995  1.0000
  I   I260      1.0  0.28464  0.25759  0.54111  1.0000
  I   I261      1.0  0.76163  0.26497  0.15384  1.0000
  I   I262      1.0  0.59945  0.85885  0.25451  1.0000
  I   I263      1.0  0.59840  0.86447  0.06104  1.0000
  I   I264      1.0  0.25960  0.86666  0.61266  1.0000
  I   I265      1.0  0.22938  0.37465  0.81800  1.0000
  I   I266      1.0  0.04709  0.14223  0.28641  1.0000
  I   I267      1.0  0.16404  0.53333  0.80866  1.0000
  I   I268      1.0  0.69410  0.51907  0.01000  1.0000
  I   I269      1.0  0.94228  0.05715  0.29041  1.0000
  I   I270      1.0  0.82528  0.42156  0.24583  1.0000
  I   I271      1.0  0.69588  0.33908  0.49744  1.0000
  I   I272      1.0  0.73269  0.10547  0.97834  1.0000
  I   I273      1.0  0.38325  0.84588  0.23983  1.0000
  I   I274      1.0  0.68103  0.80812  0.72521  1.0000
  I   I275      1.0  0.79033  0.38017  0.02254  1.0000
  I   I276      1.0  0.06991  0.55767  0.48274  1.0000
  I   I277      1.0  0.08615  0.13088  0.00352  1.0000
  I   I278      1.0  0.50361  0.26242  0.68465  1.0000
  I   I279      1.0  0.36526  0.27260  0.11991  1.0000
  I   I280      1.0  0.75857  0.77503  0.36234  1.0000
  I   I281      1.0  0.49039  0.64867  0.47700  1.0000
  I   I282      1.0  0.87982  0.85000  0.78236  1.0000
  I   I283      1.0  0.32819  0.06254  0.98857  1.0000
  I   I284      1.0  0.81449  0.63331  0.22649  1.0000
  I   I285      1.0  0.36952  0.65706  0.75463  1.0000
  I   I286      1.0  0.15340  0.04529  0.16067  1.0000
  I   I287      1.0  0.79856  0.13416  0.87504  1.0000
  I   I288      1.0  0.37508  0.52596  0.22781  1.0000
  I   I289      1.0  0.65406  0.94040  0.66912  1.0000
  I   I290      1.0  0.79410  0.18572  0.82697  1.0000
  I   I291      1.0  0.43163  0.18519  0.36663  1.0000
  I   I292      1.0  0.46260  0.51799  0.67107  1.0000
  I   I293      1.0  0.23526  0.74437  0.11004  1.0000
  I   I294      1.0  0.53484  0.11448  0.89526  1.0000
  I   I295      1.0  0.01425  0.92930  0.47816  1.0000
  I   I296      1.0  0.17379  0.58222  0.16582  1.0000
  I   I297      1.0  0.15590  0.97126  0.73918  1.0000
  I   I298      1.0  0.27087  0.19255  0.00004  1.0000
  I   I299      1.0  0.07166  0.80644  0.81302  1.0000
  I   I300      1.0  0.15301  0.78892  0.65892  1.0000
  I   I301      1.0  0.50932  0.79974  0.00644  1.0000
  I   I302      1.0  0.28801  0.39335  0.54810  1.0000
  I   I303      1.0  0.07219  0.09489  0.39489  1.0000
  I   I304      1.0  0.77112  0.53640  0.67290  1.0000
  I   I305      1.0  0.98676  0.45293  0.86025  1.0000
  I   I306      1.0  0.47531  0.28383  0.79817  1.0000
  I   I307      1.0  0.82493  0.97855  0.43110  1.0000
  I   I308      1.0  0.35302  0.18476  0.68984  1.0000
  I   I309      1.0  0.73257  0.28331  0.27819  1.0000
  I   I310      1.0  0.67001  0.73235  0.21114  1.0000
  I   I311      1.0  0.63145  0.89562  0.08076  1.0000
  I   I312      1.0  0.94326  0.87059  0.00893  1.0000
  I   I313      1.0  0.25808  0.55698  0.65080  1.0000
  I   I314      1.0  0.26190  0.31207  0.85933  1.0000
  I   I315      1.0  0.98358  0.27478  0.40957  1.0000
  I   I316      1.0  0.88551  0.42760  0.31619  1.0000
  I   I317      1.0  0.74809  0.47961  0.07556  1.0000
  I   I318      1.0  0.98033  0.09848  0.23208  1.0000
  I   I319      1.0  0.35627  0.86192  0.37349  1.0000
  I   I320      1.0  0.69708  0.40042  0.42402  1.0000
  I   I321      1.0  0.71122  0.10984  0.83236  1.0000
  I   I322      1.0  0.62718  0.84294  0.67108  1.0000
  I   I323      1.0  0.74417  0.36375  0.00206  1.0000
  I   I324      1.0  0.14960  0.46019  0.62529  1.0000
  I   I325      1.0  0.06375  0.27208  0.89064  1.0000
  I   I326      1.0  0.51141  0.22226  0.79134  1.0000
  I   I327      1.0  0.50194  0.24938  0.12204  1.0000
  I   I328      1.0  0.71631  0.78901  0.50317  1.0000
  I   I329      1.0  0.52357  0.74461  0.45259  1.0000
  I   I330      1.0  0.84140  0.93124  0.68556  1.0000
  I   I331      1.0  0.36067  0.70441  0.66812  1.0000
  I   I332      1.0  0.38168  0.07554  0.97365  1.0000
  I   I333      1.0  0.75011  0.62795  0.17230  1.0000
  I   I334      1.0  0.44359  0.53465  0.13440  1.0000
  I   I335      1.0  0.20587  0.97771  0.14897  1.0000
  I   I336      1.0  0.80672  0.18331  0.04764  1.0000
  I   I337      1.0  0.64381  0.93779  0.51858  1.0000
  I   I338      1.0  0.73254  0.20872  0.91250  1.0000
  I   I339      1.0  0.48804  0.13789  0.49622  1.0000
  I   I340      1.0  0.44446  0.47807  0.56525  1.0000
  I   I341      1.0  0.17908  0.76344  0.02602  1.0000
  I   I342      1.0  0.43959  0.08831  0.89172  1.0000
  I   I343      1.0  0.07215  0.93122  0.44383  1.0000
  I   I344      1.0  0.14485  0.53851  0.27298  1.0000
  I   I345      1.0  0.12313  0.93812  0.65231  1.0000
  I   I346      1.0  0.30901  0.18325  0.87191  1.0000
  I   I347      1.0  0.03915  0.81312  0.91983  1.0000
  I   I348      1.0  0.12419  0.75380  0.61839  1.0000
  I   I349      1.0  0.42253  0.75198  0.95232  1.0000
  I   I350      1.0  0.38781  0.40612  0.45675  1.0000
  I   I351      1.0  0.10298  0.03888  0.32997  1.0000
  I   I352      1.0  0.73366  0.59690  0.75481  1.0000
  I   I353      1.0  0.01404  0.55160  0.73599  1.0000
  I   I354      1.0  0.57143  0.22663  0.84606  1.0000
  I   I355      1.0  0.84631  0.01410  0.28467  1.0000
  I   I356      1.0  0.34702  0.20593  0.55560  1.0000
  I   I357      1.0  0.67467  0.36722  0.29197  1.0000
  I   I358      1.0  0.26063  0.80745  0.55695  1.0000
  I   I359      1.0  0.65841  0.88829  0.95886  1.0000
  I   I360      1.0  0.88086  0.92124  0.03878  1.0000
  I   I361      1.0  0.22911  0.60296  0.74699  1.0000
  I   I362      1.0  0.27926  0.33319  0.70164  1.0000
  I   I363      1.0  0.98298  0.15671  0.35995  1.0000
  I   I364      1.0  0.92618  0.38107  0.22576  1.0000
  I   I365      1.0  0.76196  0.49923  0.20655  1.0000
  I   I366      1.0  0.96922  0.07901  0.11614  1.0000
  I   I367      1.0  0.30010  0.86306  0.33312  1.0000
  I   I368      1.0  0.73280  0.42222  0.52065  1.0000
  I   I369      1.0  0.69219  0.09968  0.06851  1.0000
  I   I370      1.0  0.63164  0.76593  0.71354  1.0000
  I   I371      1.0  0.76229  0.35423  0.88346  1.0000
  I   I372      1.0  0.18037  0.43515  0.50787  1.0000
  I   I373      1.0  0.11104  0.20614  0.97056  1.0000
  I   I374      1.0  0.42341  0.29833  0.57532  1.0000
  I   I375      1.0  0.43815  0.31529  0.15106  1.0000
  I   I376      1.0  0.81469  0.78919  0.39470  1.0000
  I   I377      1.0  0.54206  0.68198  0.52984  1.0000
  I   I378      1.0  0.84363  0.90333  0.57428  1.0000
  I   I379      1.0  0.42788  0.62349  0.67093  1.0000
  I   I380      1.0  0.86574  0.21967  0.61583  1.0000
  I   I381      1.0  0.82204  0.61176  0.39816  1.0000
  I   I382      1.0  0.36339  0.57813  0.29512  1.0000
  I   I383      1.0  0.22140  0.03602  0.16849  1.0000
  I   I384      1.0  0.76283  0.15671  0.08907  1.0000
