data_image0
_chemical_formula_structural       Ti96I384
_chemical_formula_sum              "Ti96 I384"
_cell_length_a       70.3977
_cell_length_b       70.1007
_cell_length_c       34.3036
_cell_angle_alpha    88.7757
_cell_angle_beta     88.7757
_cell_angle_gamma    62.1586

_space_group_name_H-M_alt    "P 1"
_space_group_IT_number       1

loop_
  _space_group_symop_operation_xyz
  'x, y, z'

loop_
  _atom_site_type_symbol
  _atom_site_label
  _atom_site_symmetry_multiplicity
  _atom_site_fract_x
  _atom_site_fract_y
  _atom_site_fract_z
  _atom_site_occupancy
  Ti  Ti1       1.0  0.06235  0.95982  0.33223  1.0000
  Ti  Ti2       1.0  0.01485  0.10232  0.21035  1.0000
  Ti  Ti3       1.0  0.39825  0.03522  0.26443  1.0000
  Ti  Ti4       1.0  0.01713  0.32452  0.55867  1.0000
  Ti  Ti5       1.0  0.41083  0.56759  0.23632  1.0000
  Ti  Ti6       1.0  0.74404  0.96065  0.07810  1.0000
  Ti  Ti7       1.0  0.81426  0.74849  0.59531  1.0000
  Ti  Ti8       1.0  0.27462  0.50918  0.50596  1.0000
  Ti  Ti9       1.0  0.42058  0.10141  0.51094  1.0000
  Ti  Ti10      1.0  0.38764  0.48937  0.86633  1.0000
  Ti  Ti11      1.0  0.20930  0.30681  0.83251  1.0000
  Ti  Ti12      1.0  0.78941  0.74730  0.92184  1.0000
  Ti  Ti13      1.0  0.80723  0.31149  0.63749  1.0000
  Ti  Ti14      1.0  0.83809  0.12745  0.73597  1.0000
  Ti  Ti15      1.0  0.64406  0.72407  0.88245  1.0000
  Ti  Ti16      1.0  0.34521  0.48915  0.80260  1.0000
  Ti  Ti17      1.0  0.31648  0.87293  0.28842  1.0000
  Ti  Ti18      1.0  0.48120  0.86766  0.57674  1.0000
  Ti  Ti19      1.0  0.46742  0.58860  0.46123  1.0000
  Ti  Ti20      1.0  0.60783  0.14834  0.76300  1.0000
  Ti  Ti21      1.0  0.22772  0.55439  0.51580  1.0000
  Ti  Ti22      1.0  0.55706  0.91071  0.44338  1.0000
  Ti  Ti23      1.0  0.24193  0.18383  0.30951  1.0000
  Ti  Ti24      1.0  0.12968  0.79357  0.93963  1.0000
  Ti  Ti25      1.0  0.37869  0.23556  0.64941  1.0000
  Ti  Ti26      1.0  0.85951  0.97125  0.01170  1.0000
  Ti  Ti27      1.0  0.79692  0.18226  0.29272  1.0000
  Ti  Ti28      1.0  0.44958  0.94280  0.84544  1.0000
  Ti  Ti29      1.0  0.10329  0.76790  0.74030  1.0000
  Ti  Ti30      1.0  0.31445  0.89389  0.68645  1.0000
  Ti  Ti31      1.0  0.96989  0.60454  0.58209  1.0000
  Ti  Ti32      1.0  0.34173  0.88302  0.06834  1.0000
  Ti  Ti33      1.0  0.24339  0.74593  0.23740  1.0000
  Ti  Ti34      1.0  0.61466  0.37615  0.81937  1.0000
  Ti  Ti35      1.0  0.90783  0.48393  0.80872  1.0000
  Ti  Ti36      1.0  0.06915  0.21459  0.93446  1.0000
  Ti  Ti37      1.0  0.25463  0.16003  0.55029  1.0000
  Ti  Ti38      1.0  0.75914  0.30154  0.10099  1.0000
  Ti  Ti39      1.0  0.92414  0.56524  0.18728  1.0000
  Ti  Ti40      1.0  0.71061  0.55203  0.21113  1.0000
  Ti  Ti41      1.0  0.51776  0.16749  0.57388  1.0000
  Ti  Ti42      1.0  0.14959  0.91403  0.77567  1.0000
  Ti  Ti43      1.0  0.05945  0.21876  0.54360  1.0000
  Ti  Ti44      1.0  0.55084  0.05788  0.69169  1.0000
  Ti  Ti45      1.0  0.23653  0.23879  0.13909  1.0000
  Ti  Ti46      1.0  0.53879  0.66720  0.18365  1.0000
  Ti  Ti47      1.0  0.62605  0.30962  0.56521  1.0000
  Ti  Ti48      1.0  0.88694  0.02858  0.19765  1.0000
  Ti  Ti49      1.0  0.09126  0.07233  0.79874  1.0000
  Ti  Ti50      1.0  0.25581  0.33002  0.61953  1.0000
  Ti  Ti51      1.0  0.97257  0.14527  0.14697  1.0000
  Ti  Ti52      1.0  0.59917  0.19508  0.03984  1.0000
  Ti  Ti53      1.0  0.40474  0.71756  0.20313  1.0000
  Ti  Ti54      1.0  0.94843  0.80291  0.48937  1.0000
  Ti  Ti55      1.0  0.77271  0.79102  0.58012  1.0000
  Ti  Ti56      1.0  0.51248  0.28077  0.45046  1.0000
  Ti  Ti57      1.0  0.44174  0.11772  0.41208  1.0000
  Ti  Ti58      1.0  0.71350  0.28693  0.59007  1.0000
  Ti  Ti59      1.0  0.71540  0.22396  0.93689  1.0000
  Ti  Ti60      1.0  0.84328  0.72873  0.99729  1.0000
  Ti  Ti61      1.0  0.61786  0.70634  0.85757  1.0000
  Ti  Ti62      1.0  0.81228  0.35180  0.68733  1.0000
  Ti  Ti63      1.0  0.71667  0.10484  0.42853  1.0000
  Ti  Ti64      1.0  0.44823  0.86503  0.62362  1.0000
  Ti  Ti65      1.0  0.82432  0.81190  0.21255  1.0000
  Ti  Ti66      1.0  0.48419  0.26845  0.86385  1.0000
  Ti  Ti67      1.0  0.73242  0.78263  0.94512  1.0000
  Ti  Ti68      1.0  0.47605  0.56397  0.36277  1.0000
  Ti  Ti69      1.0  0.89223  0.90705  0.96304  1.0000
  Ti  Ti70      1.0  0.67219  0.78045  0.05510  1.0000
  Ti  Ti71      1.0  0.25343  0.13485  0.25266  1.0000
  Ti  Ti72      1.0  0.60541  0.27245  0.60617  1.0000
  Ti  Ti73      1.0  0.73289  0.21131  0.29402  1.0000
  Ti  Ti74      1.0  0.36566  0.19417  0.65111  1.0000
  Ti  Ti75      1.0  0.48112  0.81105  0.99615  1.0000
  Ti  Ti76      1.0  0.26510  0.95556  0.73476  1.0000
  Ti  Ti77      1.0  0.50059  0.97066  0.87670  1.0000
  Ti  Ti78      1.0  0.06716  0.81128  0.67479  1.0000
  Ti  Ti79      1.0  0.59371  0.73642  0.27358  1.0000
  Ti  Ti80      1.0  0.91298  0.34114  0.57078  1.0000
  Ti  Ti81      1.0  0.33509  0.93676  0.16872  1.0000
  Ti  Ti82      1.0  0.40040  0.24591  0.09124  1.0000
  Ti  Ti83      1.0  0.89146  0.46664  0.75053  1.0000
  Ti  Ti84      1.0  0.11567  0.17438  0.03066  1.0000
  Ti  Ti85      1.0  0.22491  0.14312  0.51390  1.0000
  Ti  Ti86      1.0  0.41196  0.29656  0.82147  1.0000
  Ti  Ti87      1.0  0.19344  0.29385  0.05592  1.0000
  Ti  Ti88      1.0  0.59002  0.24476  0.00378  1.0000
  Ti  Ti89      1.0  0.52640  0.21676  0.58422  1.0000
  Ti  Ti90      1.0  0.18339  0.88221  0.85108  1.0000
  Ti  Ti91      1.0  0.23738  0.50843  0.18205  1.0000
  Ti  Ti92      1.0  0.38555  0.59379  0.95626  1.0000
  Ti  Ti93      1.0  0.05093  0.68690  0.12701  1.0000
  Ti  Ti94      1.0  0.90682  0.02201  0.31829  1.0000
  Ti  Ti95      1.0  0.59072  0.51519  0.91807  1.0000
  Ti  Ti96      1.0  0.72534  0.58002  0.90263  1.0000
  I   I1        1.0  0.67227  0.29163  0.60302  1.0000
  I   I2        1.0  0.00480  0.09504  0.13176  1.0000
  I   I3        1.0  0.12962  0.03939  0.79731  1.0000
  I   I4        1.0  0.37357  0.74743  0.17248  1.0000
  I   I5        1.0  0.75858  0.98086  0.03300  1.0000
  I   I6        1.0  0.97457  0.80545  0.43718  1.0000
  I   I7        1.0  0.22667  0.51360  0.50359  1.0000
  I   I8        1.0  0.54170  0.24370  0.42926  1.0000
  I   I9        1.0  0.42133  0.12238  0.34331  1.0000
  I   I10       1.0  0.30858  0.48876  0.80575  1.0000
  I   I11       1.0  0.21644  0.30959  0.76044  1.0000
  I   I12       1.0  0.44588  0.53652  0.26576  1.0000
  I   I13       1.0  0.77497  0.30990  0.66848  1.0000
  I   I14       1.0  0.73141  0.08129  0.36700  1.0000
  I   I15       1.0  0.64446  0.75983  0.85768  1.0000
  I   I16       1.0  0.33833  0.51326  0.73789  1.0000
  I   I17       1.0  0.47379  0.26578  0.93875  1.0000
  I   I18       1.0  0.49548  0.89657  0.59430  1.0000
  I   I19       1.0  0.58575  0.17129  0.81976  1.0000
  I   I20       1.0  0.23349  0.32303  0.85557  1.0000
  I   I21       1.0  0.25848  0.51733  0.57291  1.0000
  I   I22       1.0  0.21195  0.17313  0.33311  1.0000
  I   I23       1.0  0.27782  0.15640  0.27105  1.0000
  I   I24       1.0  0.70034  0.76117  0.11249  1.0000
  I   I25       1.0  0.36157  0.16353  0.61099  1.0000
  I   I26       1.0  0.52097  0.79658  0.98156  1.0000
  I   I27       1.0  0.76582  0.19377  0.35818  1.0000
  I   I28       1.0  0.47330  0.92435  0.78347  1.0000
  I   I29       1.0  0.07979  0.83637  0.63318  1.0000
  I   I30       1.0  0.32078  0.88687  0.61233  1.0000
  I   I31       1.0  0.89284  0.38272  0.58276  1.0000
  I   I32       1.0  0.33899  0.89861  0.15620  1.0000
  I   I33       1.0  0.57599  0.71255  0.27754  1.0000
  I   I34       1.0  0.92679  0.50880  0.79668  1.0000
  I   I35       1.0  0.10320  0.17212  0.09913  1.0000
  I   I36       1.0  0.59130  0.40213  0.87452  1.0000
  I   I37       1.0  0.22753  0.18700  0.60472  1.0000
  I   I38       1.0  0.92840  0.52958  0.20695  1.0000
  I   I39       1.0  0.25091  0.12448  0.57982  1.0000
  I   I40       1.0  0.51330  0.17681  0.49642  1.0000
  I   I41       1.0  0.18849  0.85696  0.79013  1.0000
  I   I42       1.0  0.67417  0.55571  0.23866  1.0000
  I   I43       1.0  0.71249  0.31182  0.52593  1.0000
  I   I44       1.0  0.56879  0.07513  0.73703  1.0000
  I   I45       1.0  0.22753  0.24763  0.04948  1.0000
  I   I46       1.0  0.59360  0.49397  0.98377  1.0000
  I   I47       1.0  0.61531  0.32027  0.49813  1.0000
  I   I48       1.0  0.92125  0.99878  0.16129  1.0000
  I   I49       1.0  0.09471  0.09624  0.85537  1.0000
  I   I50       1.0  0.93652  0.17984  0.16833  1.0000
  I   I51       1.0  0.00916  0.14595  0.13093  1.0000
  I   I52       1.0  0.90451  0.31975  0.61961  1.0000
  I   I53       1.0  0.43142  0.73265  0.20442  1.0000
  I   I54       1.0  0.92515  0.84273  0.50567  1.0000
  I   I55       1.0  0.80671  0.71472  0.59791  1.0000
  I   I56       1.0  0.19676  0.56946  0.46385  1.0000
  I   I57       1.0  0.42544  0.10037  0.58246  1.0000
  I   I58       1.0  0.41658  0.45305  0.84459  1.0000
  I   I59       1.0  0.68967  0.26440  0.94789  1.0000
  I   I60       1.0  0.81120  0.71747  0.99077  1.0000
  I   I61       1.0  0.82678  0.38048  0.68006  1.0000
  I   I62       1.0  0.83941  0.27001  0.62486  1.0000
  I   I63       1.0  0.70376  0.09859  0.49878  1.0000
  I   I64       1.0  0.33688  0.51961  0.85670  1.0000
  I   I65       1.0  0.80876  0.78797  0.24482  1.0000
  I   I66       1.0  0.52327  0.22965  0.85492  1.0000
  I   I67       1.0  0.46757  0.62151  0.49753  1.0000
  I   I68       1.0  0.59395  0.17563  0.70536  1.0000
  I   I69       1.0  0.90845  0.90161  0.89389  1.0000
  I   I70       1.0  0.65635  0.77840  0.98756  1.0000
  I   I71       1.0  0.22093  0.17892  0.23855  1.0000
  I   I72       1.0  0.57856  0.30682  0.57030  1.0000
  I   I73       1.0  0.70028  0.22184  0.25059  1.0000
  I   I74       1.0  0.81722  0.00268  0.01412  1.0000
  I   I75       1.0  0.88061  0.97898  0.95322  1.0000
  I   I76       1.0  0.52300  0.95874  0.94598  1.0000
  I   I77       1.0  0.47022  0.99805  0.82553  1.0000
  I   I78       1.0  0.08067  0.97726  0.27785  1.0000
  I   I79       1.0  0.27908  0.72777  0.20249  1.0000
  I   I80       1.0  0.97051  0.59116  0.65271  1.0000
  I   I81       1.0  0.34266  0.91899  0.05644  1.0000
  I   I82       1.0  0.40902  0.27726  0.11685  1.0000
  I   I83       1.0  0.92786  0.46727  0.72965  1.0000
  I   I84       1.0  0.08058  0.24375  0.97010  1.0000
  I   I85       1.0  0.23135  0.16725  0.46388  1.0000
  I   I86       1.0  0.39034  0.28676  0.87167  1.0000
  I   I87       1.0  0.88977  0.59775  0.21485  1.0000
  I   I88       1.0  0.70372  0.58302  0.15895  1.0000
  I   I89       1.0  0.51684  0.18817  0.64636  1.0000
  I   I90       1.0  0.21757  0.87962  0.88906  1.0000
  I   I91       1.0  0.22417  0.49143  0.12941  1.0000
  I   I92       1.0  0.40702  0.61133  0.91919  1.0000
  I   I93       1.0  0.53049  0.04383  0.73373  1.0000
  I   I94       1.0  0.94723  0.00269  0.29590  1.0000
  I   I95       1.0  0.52889  0.69378  0.24848  1.0000
  I   I96       1.0  0.76004  0.58145  0.91986  1.0000
  I   I97       1.0  0.40757  0.01343  0.20224  1.0000
  I   I98       1.0  0.08042  0.95340  0.40365  1.0000
  I   I99       1.0  0.02949  0.06172  0.21205  1.0000
  I   I100      1.0  0.05090  0.32865  0.54488  1.0000
  I   I101      1.0  0.60466  0.18754  0.11947  1.0000
  I   I102      1.0  0.37138  0.58794  0.25750  1.0000
  I   I103      1.0  0.81864  0.78139  0.60979  1.0000
  I   I104      1.0  0.73614  0.82551  0.60918  1.0000
  I   I105      1.0  0.43344  0.08076  0.44192  1.0000
  I   I106      1.0  0.75978  0.73855  0.94653  1.0000
  I   I107      1.0  0.38543  0.50411  0.93473  1.0000
  I   I108      1.0  0.82946  0.74650  0.06445  1.0000
  I   I109      1.0  0.68472  0.71173  0.89046  1.0000
  I   I110      1.0  0.83586  0.32712  0.61640  1.0000
  I   I111      1.0  0.68926  0.14082  0.40556  1.0000
  I   I112      1.0  0.49461  0.84168  0.64124  1.0000
  I   I113      1.0  0.81314  0.83467  0.14752  1.0000
  I   I114      1.0  0.30417  0.90015  0.34642  1.0000
  I   I115      1.0  0.70772  0.78674  0.01231  1.0000
  I   I116      1.0  0.69683  0.78985  0.89299  1.0000
  I   I117      1.0  0.45837  0.54422  0.40130  1.0000
  I   I118      1.0  0.55026  0.91568  0.36224  1.0000
  I   I119      1.0  0.64668  0.82128  0.07326  1.0000
  I   I120      1.0  0.60215  0.23556  0.60081  1.0000
  I   I121      1.0  0.76691  0.17539  0.26222  1.0000
  I   I122      1.0  0.40655  0.24998  0.66679  1.0000
  I   I123      1.0  0.45001  0.81229  0.95397  1.0000
  I   I124      1.0  0.33991  0.91009  0.70727  1.0000
  I   I125      1.0  0.41282  0.97222  0.82938  1.0000
  I   I126      1.0  0.14558  0.75521  0.73960  1.0000
  I   I127      1.0  0.23307  0.78382  0.26209  1.0000
  I   I128      1.0  0.00308  0.32900  0.49014  1.0000
  I   I129      1.0  0.34436  0.84559  0.09776  1.0000
  I   I130      1.0  0.07491  0.17982  0.98517  1.0000
  I   I131      1.0  0.44156  0.21912  0.08577  1.0000
  I   I132      1.0  0.85771  0.47590  0.79867  1.0000
  I   I133      1.0  0.91304  0.56549  0.11269  1.0000
  I   I134      1.0  0.72521  0.30337  0.07095  1.0000
  I   I135      1.0  0.51528  0.27580  0.82526  1.0000
  I   I136      1.0  0.16866  0.86681  0.90626  1.0000
  I   I137      1.0  0.61892  0.25645  0.96399  1.0000
  I   I138      1.0  0.48966  0.22660  0.55920  1.0000
  I   I139      1.0  0.22161  0.55221  0.17399  1.0000
  I   I140      1.0  0.37061  0.56786  0.93971  1.0000
  I   I141      1.0  0.03478  0.66074  0.11299  1.0000
  I   I142      1.0  0.89396  0.00165  0.36637  1.0000
  I   I143      1.0  0.55848  0.63443  0.22510  1.0000
  I   I144      1.0  0.69799  0.59358  0.96552  1.0000
  I   I145      1.0  0.06083  0.92354  0.31009  1.0000
  I   I146      1.0  0.05606  0.09620  0.19709  1.0000
  I   I147      1.0  0.39471  0.01455  0.32827  1.0000
  I   I148      1.0  0.64041  0.16209  0.02855  1.0000
  I   I149      1.0  0.41176  0.55286  0.16731  1.0000
  I   I150      1.0  0.78666  0.93813  0.09497  1.0000
  I   I151      1.0  0.78028  0.81700  0.53413  1.0000
  I   I152      1.0  0.31271  0.50994  0.52187  1.0000
  I   I153      1.0  0.48275  0.09377  0.38128  1.0000
  I   I154      1.0  0.10026  0.19738  0.55912  1.0000
  I   I155      1.0  0.17007  0.33472  0.82191  1.0000
  I   I156      1.0  0.88150  0.72291  0.95378  1.0000
  I   I157      1.0  0.61115  0.72351  0.93605  1.0000
  I   I158      1.0  0.75241  0.10640  0.42570  1.0000
  I   I159      1.0  0.58528  0.69380  0.87095  1.0000
  I   I160      1.0  0.46412  0.83282  0.57025  1.0000
  I   I161      1.0  0.35196  0.84711  0.34298  1.0000
  I   I162      1.0  0.44297  0.89240  0.54460  1.0000
  I   I163      1.0  0.45562  0.56842  0.50891  1.0000
  I   I164      1.0  0.43787  0.58961  0.33918  1.0000
  I   I165      1.0  0.24340  0.58103  0.52500  1.0000
  I   I166      1.0  0.51976  0.93117  0.47187  1.0000
  I   I167      1.0  0.26002  0.19116  0.36572  1.0000
  I   I168      1.0  0.12962  0.75775  0.95822  1.0000
  I   I169      1.0  0.32793  0.22559  0.63012  1.0000
  I   I170      1.0  0.39966  0.19179  0.67659  1.0000
  I   I171      1.0  0.71383  0.23641  0.35208  1.0000
  I   I172      1.0  0.25188  0.99579  0.74288  1.0000
  I   I173      1.0  0.02655  0.82777  0.65255  1.0000
  I   I174      1.0  0.28206  0.90191  0.74946  1.0000
  I   I175      1.0  0.94387  0.64495  0.59362  1.0000
  I   I176      1.0  0.34760  0.87477  0.99618  1.0000
  I   I177      1.0  0.62512  0.73006  0.22077  1.0000
  I   I178      1.0  0.36425  0.26964  0.12708  1.0000
  I   I179      1.0  0.86864  0.46965  0.68435  1.0000
  I   I180      1.0  0.06594  0.20077  0.86170  1.0000
  I   I181      1.0  0.18866  0.16549  0.55073  1.0000
  I   I182      1.0  0.44636  0.30911  0.84479  1.0000
  I   I183      1.0  0.21155  0.28659  0.12787  1.0000
  I   I184      1.0  0.61110  0.20752  0.96047  1.0000
  I   I185      1.0  0.55398  0.17504  0.56718  1.0000
  I   I186      1.0  0.12647  0.95576  0.75546  1.0000
  I   I187      1.0  0.40419  0.57178  0.01643  1.0000
  I   I188      1.0  0.52260  0.08283  0.64527  1.0000
  I   I189      1.0  0.27230  0.24391  0.11798  1.0000
  I   I190      1.0  0.56405  0.67566  0.13535  1.0000
  I   I191      1.0  0.29707  0.32337  0.63147  1.0000
  I   I192      1.0  0.88694  0.05876  0.14941  1.0000
  I   I193      1.0  0.06172  0.77619  0.72196  1.0000
  I   I194      1.0  0.24557  0.29771  0.62684  1.0000
  I   I195      1.0  0.36551  0.07187  0.23933  1.0000
  I   I196      1.0  0.03173  0.29014  0.61106  1.0000
  I   I197      1.0  0.74046  0.24420  0.57728  1.0000
  I   I198      1.0  0.71876  0.97616  0.13490  1.0000
  I   I199      1.0  0.76552  0.76778  0.64031  1.0000
  I   I200      1.0  0.48403  0.26831  0.45818  1.0000
  I   I201      1.0  0.39449  0.14538  0.49668  1.0000
  I   I202      1.0  0.74396  0.21827  0.88621  1.0000
  I   I203      1.0  0.87988  0.87600  0.94208  1.0000
  I   I204      1.0  0.87709  0.69375  0.03273  1.0000
  I   I205      1.0  0.82684  0.30940  0.71120  1.0000
  I   I206      1.0  0.79967  0.13570  0.71839  1.0000
  I   I207      1.0  0.59558  0.74913  0.85451  1.0000
  I   I208      1.0  0.35938  0.46779  0.87985  1.0000
  I   I209      1.0  0.28748  0.90768  0.24771  1.0000
  I   I210      1.0  0.61362  0.73115  0.34225  1.0000
  I   I211      1.0  0.71356  0.82509  0.94023  1.0000
  I   I212      1.0  0.59538  0.12197  0.73708  1.0000
  I   I213      1.0  0.85782  0.94751  0.93791  1.0000
  I   I214      1.0  0.57495  0.87773  0.48994  1.0000
  I   I215      1.0  0.22792  0.12026  0.25456  1.0000
  I   I216      1.0  0.09498  0.82158  0.90991  1.0000
  I   I217      1.0  0.34925  0.26989  0.62412  1.0000
  I   I218      1.0  0.47088  0.85252  0.99897  1.0000
  I   I219      1.0  0.81750  0.17501  0.22620  1.0000
  I   I220      1.0  0.51960  0.93466  0.83338  1.0000
  I   I221      1.0  0.10913  0.72741  0.75574  1.0000
  I   I222      1.0  0.28744  0.94074  0.66227  1.0000
  I   I223      1.0  0.01179  0.59677  0.57079  1.0000
  I   I224      1.0  0.33314  0.93880  0.24337  1.0000
  I   I225      1.0  0.21628  0.74755  0.18632  1.0000
  I   I226      1.0  0.37977  0.23919  0.03429  1.0000
  I   I227      1.0  0.91852  0.44913  0.85638  1.0000
  I   I228      1.0  0.11957  0.17858  0.95273  1.0000
  I   I229      1.0  0.27806  0.17356  0.58622  1.0000
  I   I230      1.0  0.77929  0.27008  0.14652  1.0000
  I   I231      1.0  0.95586  0.57498  0.21190  1.0000
  I   I232      1.0  0.84416  0.11391  0.80781  1.0000
  I   I233      1.0  0.47581  0.18173  0.58974  1.0000
  I   I234      1.0  0.14160  0.92030  0.86037  1.0000
  I   I235      1.0  0.03695  0.24836  0.48839  1.0000
  I   I236      1.0  0.05042  0.70228  0.19511  1.0000
  I   I237      1.0  0.27755  0.48841  0.16594  1.0000
  I   I238      1.0  0.57583  0.55564  0.93552  1.0000
  I   I239      1.0  0.72502  0.59270  0.83143  1.0000
  I   I240      1.0  0.91423  0.04446  0.36914  1.0000
  I   I241      1.0  0.06592  0.09140  0.74686  1.0000
  I   I242      1.0  0.01612  0.10079  0.29171  1.0000
  I   I243      1.0  0.43314  0.03578  0.28712  1.0000
  I   I244      1.0  0.62444  0.22056  0.05096  1.0000
  I   I245      1.0  0.40103  0.70588  0.27196  1.0000
  I   I246      1.0  0.73904  0.93622  0.02675  1.0000
  I   I247      1.0  0.83066  0.73180  0.66586  1.0000
  I   I248      1.0  0.26003  0.52832  0.43381  1.0000
  I   I249      1.0  0.45791  0.10739  0.50203  1.0000
  I   I250      1.0  0.72624  0.21474  0.00965  1.0000
  I   I251      1.0  0.22462  0.27799  0.89549  1.0000
  I   I252      1.0  0.81789  0.71289  0.87806  1.0000
  I   I253      1.0  0.79124  0.37176  0.75370  1.0000
  I   I254      1.0  0.86220  0.09793  0.69123  1.0000
  I   I255      1.0  0.65012  0.71303  0.80114  1.0000
  I   I256      1.0  0.86307  0.77626  0.23238  1.0000
  I   I257      1.0  0.28859  0.85630  0.28730  1.0000
  I   I258      1.0  0.40804  0.87687  0.59835  1.0000
  I   I259      1.0  0.77226  0.77242  0.99156  1.0000
  I   I260      1.0  0.47982  0.60335  0.38872  1.0000
  I   I261      1.0  0.29522  0.46856  0.48908  1.0000
  I   I262      1.0  0.58028  0.93168  0.45753  1.0000
  I   I263      1.0  0.21941  0.22652  0.31120  1.0000
  I   I264      1.0  0.16573  0.78455  0.90187  1.0000
  I   I265      1.0  0.37892  0.21499  0.58137  1.0000
  I   I266      1.0  0.93020  0.88089  0.00004  1.0000
  I   I267      1.0  0.75132  0.23189  0.25325  1.0000
  I   I268      1.0  0.46675  0.96236  0.90125  1.0000
  I   I269      1.0  0.05921  0.83965  0.72918  1.0000
  I   I270      1.0  0.29021  0.94545  0.79074  1.0000
  I   I271      1.0  0.95608  0.57925  0.54271  1.0000
  I   I272      1.0  0.30465  0.96989  0.13479  1.0000
  I   I273      1.0  0.24673  0.73008  0.31057  1.0000
  I   I274      1.0  0.65580  0.35299  0.84206  1.0000
  I   I275      1.0  0.87952  0.51020  0.75689  1.0000
  I   I276      1.0  0.14266  0.13284  0.03852  1.0000
  I   I277      1.0  0.39882  0.20857  0.11454  1.0000
  I   I278      1.0  0.78767  0.30915  0.05665  1.0000
  I   I279      1.0  0.16413  0.28018  0.05346  1.0000
  I   I280      1.0  0.56272  0.23740  0.04844  1.0000
  I   I281      1.0  0.54040  0.12807  0.57619  1.0000
  I   I282      1.0  0.17459  0.90534  0.70543  1.0000
  I   I283      1.0  0.05697  0.18606  0.50864  1.0000
  I   I284      1.0  0.08957  0.65888  0.10576  1.0000
  I   I285      1.0  0.24240  0.24489  0.20836  1.0000
  I   I286      1.0  0.55973  0.51210  0.88774  1.0000
  I   I287      1.0  0.61656  0.34624  0.60109  1.0000
  I   I288      1.0  0.89740  0.99594  0.25709  1.0000
  I   I289      1.0  0.07641  0.04726  0.82369  1.0000
  I   I290      1.0  0.22858  0.35914  0.66455  1.0000
  I   I291      1.0  0.96678  0.12901  0.21125  1.0000
  I   I292      1.0  0.56399  0.19417  0.01493  1.0000
  I   I293      1.0  0.41614  0.68370  0.15488  1.0000
  I   I294      1.0  0.97814  0.78153  0.54661  1.0000
  I   I295      1.0  0.84631  0.72129  0.54855  1.0000
  I   I296      1.0  0.52187  0.30841  0.48370  1.0000
  I   I297      1.0  0.39575  0.07971  0.51424  1.0000
  I   I298      1.0  0.69942  0.31606  0.64698  1.0000
  I   I299      1.0  0.40719  0.50786  0.82853  1.0000
  I   I300      1.0  0.82065  0.76141  0.93984  1.0000
  I   I301      1.0  0.61945  0.68444  0.79441  1.0000
  I   I302      1.0  0.78313  0.31890  0.57065  1.0000
  I   I303      1.0  0.72245  0.54376  0.28256  1.0000
  I   I304      1.0  0.50212  0.84650  0.51625  1.0000
  I   I305      1.0  0.36393  0.45080  0.76880  1.0000
  I   I306      1.0  0.45502  0.25679  0.83096  1.0000
  I   I307      1.0  0.48939  0.54899  0.29570  1.0000
  I   I308      1.0  0.64495  0.13795  0.73817  1.0000
  I   I309      1.0  0.20226  0.57814  0.57929  1.0000
  I   I310      1.0  0.03368  0.23534  0.60376  1.0000
  I   I311      1.0  0.27070  0.12360  0.32551  1.0000
  I   I312      1.0  0.62222  0.28757  0.66067  1.0000
  I   I313      1.0  0.83233  0.13883  0.31156  1.0000
  I   I314      1.0  0.36049  0.24512  0.71928  1.0000
  I   I315      1.0  0.46776  0.80358  0.06405  1.0000
  I   I316      1.0  0.22949  0.95651  0.74898  1.0000
  I   I317      1.0  0.43988  0.91533  0.88488  1.0000
  I   I318      1.0  0.10740  0.77874  0.65956  1.0000
  I   I319      1.0  0.57772  0.76329  0.20757  1.0000
  I   I320      1.0  0.99932  0.35292  0.61389  1.0000
  I   I321      1.0  0.29820  0.90978  0.07306  1.0000
  I   I322      1.0  0.59696  0.40225  0.75865  1.0000
  I   I323      1.0  0.89921  0.42135  0.75726  1.0000
  I   I324      1.0  0.14143  0.18750  0.06252  1.0000
  I   I325      1.0  0.28388  0.13133  0.50796  1.0000
  I   I326      1.0  0.38221  0.33792  0.81240  1.0000
  I   I327      1.0  0.19049  0.30756  0.98536  1.0000
  I   I328      1.0  0.71484  0.51734  0.17209  1.0000
  I   I329      1.0  0.52006  0.24394  0.64479  1.0000
  I   I330      1.0  0.19227  0.90775  0.79840  1.0000
  I   I331      1.0  0.23766  0.20254  0.15463  1.0000
  I   I332      1.0  0.75485  0.28356  0.58501  1.0000
  I   I333      1.0  0.58528  0.02041  0.67453  1.0000
  I   I334      1.0  0.85222  0.02770  0.16608  1.0000
  I   I335      1.0  0.50516  0.66103  0.15684  1.0000
  I   I336      1.0  0.73944  0.54019  0.89134  1.0000
  I   I337      1.0  0.02666  0.99109  0.34786  1.0000
  I   I338      1.0  0.23700  0.35096  0.55146  1.0000
  I   I339      1.0  0.96339  0.14969  0.07052  1.0000
  I   I340      1.0  0.89637  0.33932  0.50757  1.0000
  I   I341      1.0  0.41492  0.60082  0.20933  1.0000
  I   I342      1.0  0.92555  0.78474  0.51256  1.0000
  I   I343      1.0  0.75281  0.78600  0.52306  1.0000
  I   I344      1.0  0.49378  0.30565  0.39239  1.0000
  I   I345      1.0  0.43556  0.15557  0.41246  1.0000
  I   I346      1.0  0.64643  0.76542  0.08071  1.0000
  I   I347      1.0  0.69447  0.19973  0.92154  1.0000
  I   I348      1.0  0.75938  0.77385  0.86835  1.0000
  I   I349      1.0  0.65805  0.67856  0.87943  1.0000
  I   I350      1.0  0.78008  0.37994  0.64096  1.0000
  I   I351      1.0  0.84151  0.16065  0.71216  1.0000
  I   I352      1.0  0.44845  0.89443  0.67096  1.0000
  I   I353      1.0  0.80856  0.84185  0.26888  1.0000
  I   I354      1.0  0.41307  0.29244  0.74411  1.0000
  I   I355      1.0  0.42681  0.61365  0.42486  1.0000
  I   I356      1.0  0.50369  0.54169  0.43440  1.0000
  I   I357      1.0  0.88147  0.97306  0.06736  1.0000
  I   I358      1.0  0.11444  0.81522  0.00841  1.0000
  I   I359      1.0  0.28390  0.10358  0.20652  1.0000
  I   I360      1.0  0.58274  0.27373  0.67095  1.0000
  I   I361      1.0  0.80731  0.21226  0.32234  1.0000
  I   I362      1.0  0.35877  0.17593  0.71259  1.0000
  I   I363      1.0  0.87976  0.92546  0.03900  1.0000
  I   I364      1.0  0.33498  0.85371  0.69358  1.0000
  I   I365      1.0  0.53350  0.98044  0.86760  1.0000
  I   I366      1.0  0.09316  0.77289  0.81394  1.0000
  I   I367      1.0  0.55644  0.77189  0.30420  1.0000
  I   I368      1.0  0.95487  0.31862  0.55515  1.0000
  I   I369      1.0  0.37524  0.92941  0.14204  1.0000
  I   I370      1.0  0.59928  0.34905  0.81855  1.0000
  I   I371      1.0  0.87400  0.51414  0.85921  1.0000
  I   I372      1.0  0.02925  0.24128  0.95234  1.0000
  I   I373      1.0  0.21377  0.12077  0.47274  1.0000
  I   I374      1.0  0.74242  0.32611  0.16309  1.0000
  I   I375      1.0  0.16357  0.33431  0.06888  1.0000
  I   I376      1.0  0.56075  0.27477  0.96108  1.0000
  I   I377      1.0  0.53131  0.24704  0.53479  1.0000
  I   I378      1.0  0.12671  0.89515  0.77744  1.0000
  I   I379      1.0  0.22133  0.49665  0.23983  1.0000
  I   I380      1.0  0.35320  0.62118  0.99742  1.0000
  I   I381      1.0  0.03591  0.72545  0.09842  1.0000
  I   I382      1.0  0.88415  0.05474  0.26182  1.0000
  I   I383      1.0  0.61971  0.49171  0.86771  1.0000
  I   I384      1.0  0.64024  0.26493  0.56196  1.0000
