data_image0
_chemical_formula_structural       Ti96I384
_chemical_formula_sum              "Ti96 I384"
_cell_length_a       57.5455
_cell_length_b       58.1085
_cell_length_c       28.1843
_cell_angle_alpha    88.7757
_cell_angle_beta     88.7757
_cell_angle_gamma    62.1586

_space_group_name_H-M_alt    "P 1"
_space_group_IT_number       1

loop_
  _space_group_symop_operation_xyz
  'x, y, z'

loop_
  _atom_site_type_symbol
  _atom_site_label
  _atom_site_symmetry_multiplicity
  _atom_site_fract_x
  _atom_site_fract_y
  _atom_site_fract_z
  _atom_site_occupancy
  Ti  Ti1       1.0  0.92827  0.71904  0.97057  1.0000
  Ti  Ti2       1.0  0.78706  0.97340  0.08841  1.0000
  Ti  Ti3       1.0  0.84247  0.68751  0.56212  1.0000
  Ti  Ti4       1.0  0.34083  0.25766  0.27681  1.0000
  Ti  Ti5       1.0  0.10750  0.90753  0.98849  1.0000
  Ti  Ti6       1.0  0.13164  0.08492  0.28345  1.0000
  Ti  Ti7       1.0  0.96202  0.84972  0.80980  1.0000
  Ti  Ti8       1.0  0.20133  0.81667  0.55381  1.0000
  Ti  Ti9       1.0  0.77178  0.15090  0.95932  1.0000
  Ti  Ti10      1.0  0.47672  0.99470  0.11585  1.0000
  Ti  Ti11      1.0  0.06494  0.56398  0.97230  1.0000
  Ti  Ti12      1.0  0.64968  0.91114  0.91224  1.0000
  Ti  Ti13      1.0  0.38759  0.22082  0.98048  1.0000
  Ti  Ti14      1.0  0.09559  0.37078  0.20306  1.0000
  Ti  Ti15      1.0  0.26165  0.02953  0.82379  1.0000
  Ti  Ti16      1.0  0.00998  0.92279  0.40555  1.0000
  Ti  Ti17      1.0  0.15230  0.63978  0.12395  1.0000
  Ti  Ti18      1.0  0.97430  0.40428  0.16156  1.0000
  Ti  Ti19      1.0  0.73869  0.67316  0.27712  1.0000
  Ti  Ti20      1.0  0.71188  0.82359  0.42132  1.0000
  Ti  Ti21      1.0  0.27489  0.43310  0.21198  1.0000
  Ti  Ti22      1.0  0.50486  0.87857  0.50311  1.0000
  Ti  Ti23      1.0  0.53640  0.84912  0.90905  1.0000
  Ti  Ti24      1.0  0.59540  0.92914  0.63079  1.0000
  Ti  Ti25      1.0  0.20939  0.22902  0.54560  1.0000
  Ti  Ti26      1.0  0.26328  0.35059  0.86543  1.0000
  Ti  Ti27      1.0  0.35684  0.51726  0.46414  1.0000
  Ti  Ti28      1.0  0.52777  0.70887  0.54663  1.0000
  Ti  Ti29      1.0  0.83744  0.38717  0.45412  1.0000
  Ti  Ti30      1.0  0.83236  0.49284  0.60471  1.0000
  Ti  Ti31      1.0  0.74445  0.36682  0.17601  1.0000
  Ti  Ti32      1.0  0.93289  0.05185  0.19491  1.0000
  Ti  Ti33      1.0  0.04679  0.12349  0.55912  1.0000
  Ti  Ti34      1.0  0.90296  0.75165  0.32925  1.0000
  Ti  Ti35      1.0  0.64673  0.64554  0.86229  1.0000
  Ti  Ti36      1.0  0.99032  0.50909  0.59067  1.0000
  Ti  Ti37      1.0  0.89958  0.26797  0.19348  1.0000
  Ti  Ti38      1.0  0.61546  0.28026  0.39526  1.0000
  Ti  Ti39      1.0  0.31964  0.03124  0.44356  1.0000
  Ti  Ti40      1.0  0.31570  0.70671  0.05125  1.0000
  Ti  Ti41      1.0  0.64931  0.41545  0.59490  1.0000
  Ti  Ti42      1.0  0.48464  0.70554  0.12450  1.0000
  Ti  Ti43      1.0  0.01132  0.94627  0.82798  1.0000
  Ti  Ti44      1.0  0.95506  0.55712  0.17153  1.0000
  Ti  Ti45      1.0  0.93873  0.45842  0.89346  1.0000
  Ti  Ti46      1.0  0.69156  0.08121  0.46451  1.0000
  Ti  Ti47      1.0  0.37597  0.35521  0.64105  1.0000
  Ti  Ti48      1.0  0.52304  0.51614  0.11821  1.0000
  Ti  Ti49      1.0  0.88842  0.71413  0.86923  1.0000
  Ti  Ti50      1.0  0.85686  0.98405  0.08822  1.0000
  Ti  Ti51      1.0  0.71200  0.05462  0.04982  1.0000
  Ti  Ti52      1.0  0.35044  0.19408  0.27264  1.0000
  Ti  Ti53      1.0  0.12555  0.85617  0.07544  1.0000
  Ti  Ti54      1.0  0.11136  0.12250  0.13710  1.0000
  Ti  Ti55      1.0  0.00669  0.79504  0.85899  1.0000
  Ti  Ti56      1.0  0.17041  0.78155  0.47543  1.0000
  Ti  Ti57      1.0  0.74110  0.19819  0.01368  1.0000
  Ti  Ti58      1.0  0.08344  0.89584  0.79524  1.0000
  Ti  Ti59      1.0  0.51690  0.98685  0.24228  1.0000
  Ti  Ti60      1.0  0.68838  0.91099  0.82692  1.0000
  Ti  Ti61      1.0  0.30520  0.99300  0.71445  1.0000
  Ti  Ti62      1.0  0.41663  0.14999  0.97297  1.0000
  Ti  Ti63      1.0  0.11046  0.39179  0.30593  1.0000
  Ti  Ti64      1.0  0.96172  0.38629  0.26136  1.0000
  Ti  Ti65      1.0  0.07392  0.88843  0.31815  1.0000
  Ti  Ti66      1.0  0.26857  0.65856  0.61808  1.0000
  Ti  Ti67      1.0  0.65219  0.70834  0.20939  1.0000
  Ti  Ti68      1.0  0.70457  0.88330  0.36683  1.0000
  Ti  Ti69      1.0  0.32936  0.42267  0.26114  1.0000
  Ti  Ti70      1.0  0.54558  0.91596  0.54795  1.0000
  Ti  Ti71      1.0  0.48139  0.91506  0.87729  1.0000
  Ti  Ti72      1.0  0.53083  0.75005  0.83014  1.0000
  Ti  Ti73      1.0  0.36875  0.50756  0.57354  1.0000
  Ti  Ti74      1.0  0.26130  0.24877  0.56425  1.0000
  Ti  Ti75      1.0  0.21134  0.33904  0.85021  1.0000
  Ti  Ti76      1.0  0.78870  0.55674  0.66985  1.0000
  Ti  Ti77      1.0  0.55625  0.69280  0.39428  1.0000
  Ti  Ti78      1.0  0.82715  0.45242  0.43105  1.0000
  Ti  Ti79      1.0  0.09250  0.07612  0.61581  1.0000
  Ti  Ti80      1.0  0.69968  0.43667  0.13495  1.0000
  Ti  Ti81      1.0  0.89394  0.10940  0.20151  1.0000
  Ti  Ti82      1.0  0.93473  0.79204  0.24659  1.0000
  Ti  Ti83      1.0  0.60546  0.59155  0.83931  1.0000
  Ti  Ti84      1.0  0.97768  0.57214  0.64371  1.0000
  Ti  Ti85      1.0  0.87972  0.23079  0.07837  1.0000
  Ti  Ti86      1.0  0.53995  0.31075  0.46740  1.0000
  Ti  Ti87      1.0  0.37695  0.03081  0.39146  1.0000
  Ti  Ti88      1.0  0.26021  0.72660  0.03200  1.0000
  Ti  Ti89      1.0  0.63868  0.47485  0.53030  1.0000
  Ti  Ti90      1.0  0.50963  0.74721  0.13188  1.0000
  Ti  Ti91      1.0  0.94309  0.41037  0.79738  1.0000
  Ti  Ti92      1.0  0.86913  0.10319  0.71091  1.0000
  Ti  Ti93      1.0  0.99960  0.56666  0.17896  1.0000
  Ti  Ti94      1.0  0.57063  0.44115  0.07661  1.0000
  Ti  Ti95      1.0  0.63828  0.07184  0.44980  1.0000
  Ti  Ti96      1.0  0.39300  0.33075  0.75134  1.0000
  I   I1        1.0  0.88131  0.97689  0.17864  1.0000
  I   I2        1.0  0.78317  0.94621  0.02003  1.0000
  I   I3        1.0  0.93226  0.75948  0.00563  1.0000
  I   I4        1.0  0.16006  0.86390  0.00676  1.0000
  I   I5        1.0  0.17071  0.04216  0.29870  1.0000
  I   I6        1.0  0.13800  0.14684  0.11666  1.0000
  I   I7        1.0  0.19029  0.77029  0.39082  1.0000
  I   I8        1.0  0.11875  0.80714  0.46357  1.0000
  I   I9        1.0  0.77122  0.13703  0.05013  1.0000
  I   I10       1.0  0.46926  0.02263  0.19774  1.0000
  I   I11       1.0  0.01576  0.58082  0.97828  1.0000
  I   I12       1.0  0.10311  0.90905  0.89777  1.0000
  I   I13       1.0  0.41744  0.18658  0.05041  1.0000
  I   I14       1.0  0.12822  0.37794  0.39959  1.0000
  I   I15       1.0  0.21408  0.04709  0.85723  1.0000
  I   I16       1.0  0.00405  0.88797  0.35488  1.0000
  I   I17       1.0  0.26354  0.69180  0.67988  1.0000
  I   I18       1.0  0.91925  0.39454  0.30406  1.0000
  I   I19       1.0  0.74510  0.88806  0.33697  1.0000
  I   I20       1.0  0.28619  0.42195  0.30772  1.0000
  I   I21       1.0  0.34028  0.44874  0.32270  1.0000
  I   I22       1.0  0.46881  0.91766  0.78635  1.0000
  I   I23       1.0  0.58180  0.81009  0.89976  1.0000
  I   I24       1.0  0.55089  0.96319  0.56675  1.0000
  I   I25       1.0  0.25102  0.22634  0.48485  1.0000
  I   I26       1.0  0.28359  0.37384  0.81334  1.0000
  I   I27       1.0  0.31602  0.51327  0.42843  1.0000
  I   I28       1.0  0.50911  0.69956  0.46207  1.0000
  I   I29       1.0  0.80397  0.43237  0.49187  1.0000
  I   I30       1.0  0.78512  0.50528  0.65386  1.0000
  I   I31       1.0  0.66356  0.48107  0.17277  1.0000
  I   I32       1.0  0.90033  0.14518  0.24608  1.0000
  I   I33       1.0  0.09409  0.12366  0.60483  1.0000
  I   I34       1.0  0.63728  0.67604  0.92889  1.0000
  I   I35       1.0  0.02271  0.52172  0.64908  1.0000
  I   I36       1.0  0.88639  0.82355  0.21169  1.0000
  I   I37       1.0  0.92563  0.22612  0.10581  1.0000
  I   I38       1.0  0.36721  0.99131  0.41485  1.0000
  I   I39       1.0  0.87639  0.22357  0.98652  1.0000
  I   I40       1.0  0.61579  0.44552  0.50370  1.0000
  I   I41       1.0  0.49908  0.65916  0.15188  1.0000
  I   I42       1.0  0.28352  0.67771  0.99359  1.0000
  I   I43       1.0  0.02629  0.93458  0.73518  1.0000
  I   I44       1.0  0.97764  0.58354  0.25766  1.0000
  I   I45       1.0  0.91123  0.46858  0.97103  1.0000
  I   I46       1.0  0.68252  0.06132  0.38180  1.0000
  I   I47       1.0  0.40980  0.34124  0.56918  1.0000
  I   I48       1.0  0.52233  0.47213  0.03751  1.0000
  I   I49       1.0  0.95402  0.68706  0.03420  1.0000
  I   I50       1.0  0.83549  0.96412  0.03144  1.0000
  I   I51       1.0  0.67912  0.05695  0.98408  1.0000
  I   I52       1.0  0.32948  0.20147  0.35792  1.0000
  I   I53       1.0  0.10333  0.90793  0.09480  1.0000
  I   I54       1.0  0.06159  0.14622  0.12698  1.0000
  I   I55       1.0  0.95919  0.79999  0.79659  1.0000
  I   I56       1.0  0.16328  0.83429  0.48816  1.0000
  I   I57       1.0  0.70633  0.17750  0.98660  1.0000
  I   I58       1.0  0.52563  0.98628  0.14917  1.0000
  I   I59       1.0  0.45239  0.03513  0.05787  1.0000
  I   I60       1.0  0.63727  0.91369  0.81403  1.0000
  I   I61       1.0  0.41850  0.12160  0.90320  1.0000
  I   I62       1.0  0.43477  0.11223  0.03448  1.0000
  I   I63       1.0  0.05190  0.41791  0.20322  1.0000
  I   I64       1.0  0.01259  0.91124  0.49400  1.0000
  I   I65       1.0  0.11561  0.89197  0.33875  1.0000
  I   I66       1.0  0.25813  0.67679  0.53268  1.0000
  I   I67       1.0  0.63394  0.75082  0.15848  1.0000
  I   I68       1.0  0.68474  0.80574  0.37510  1.0000
  I   I69       1.0  0.31439  0.38638  0.18709  1.0000
  I   I70       1.0  0.55358  0.86789  0.53914  1.0000
  I   I71       1.0  0.51196  0.89613  0.96608  1.0000
  I   I72       1.0  0.48259  0.76722  0.83931  1.0000
  I   I73       1.0  0.33696  0.55432  0.52121  1.0000
  I   I74       1.0  0.22311  0.31247  0.93349  1.0000
  I   I75       1.0  0.24049  0.34423  0.77402  1.0000
  I   I76       1.0  0.54203  0.66074  0.58057  1.0000
  I   I77       1.0  0.60888  0.67108  0.40652  1.0000
  I   I78       1.0  0.79968  0.49863  0.50920  1.0000
  I   I79       1.0  0.10284  0.06119  0.70312  1.0000
  I   I80       1.0  0.77607  0.37663  0.11836  1.0000
  I   I81       1.0  0.89734  0.04637  0.14204  1.0000
  I   I82       1.0  0.95903  0.81689  0.26477  1.0000
  I   I83       1.0  0.64584  0.60657  0.79674  1.0000
  I   I84       1.0  0.01035  0.58119  0.59162  1.0000
  I   I85       1.0  0.85531  0.20127  0.09233  1.0000
  I   I86       1.0  0.52621  0.34375  0.53930  1.0000
  I   I87       1.0  0.27614  0.07594  0.46544  1.0000
  I   I88       1.0  0.31499  0.73170  0.97209  1.0000
  I   I89       1.0  0.64097  0.47915  0.62232  1.0000
  I   I90       1.0  0.44406  0.73468  0.18022  1.0000
  I   I91       1.0  0.93482  0.41782  0.70653  1.0000
  I   I92       1.0  0.88027  0.13644  0.75148  1.0000
  I   I93       1.0  0.05255  0.55097  0.16802  1.0000
  I   I94       1.0  0.58702  0.47494  0.03487  1.0000
  I   I95       1.0  0.61831  0.07942  0.53556  1.0000
  I   I96       1.0  0.39756  0.29921  0.66582  1.0000
  I   I97       1.0  0.82947  0.73790  0.56363  1.0000
  I   I98       1.0  0.92712  0.73786  0.87779  1.0000
  I   I99       1.0  0.76851  0.01929  0.03031  1.0000
  I   I100      1.0  0.30557  0.23932  0.24894  1.0000
  I   I101      1.0  0.37134  0.24171  0.35006  1.0000
  I   I102      1.0  0.10424  0.85406  0.98501  1.0000
  I   I103      1.0  0.02545  0.81512  0.92040  1.0000
  I   I104      1.0  0.91638  0.86323  0.84737  1.0000
  I   I105      1.0  0.78816  0.19068  0.03154  1.0000
  I   I106      1.0  0.61617  0.96141  0.92838  1.0000
  I   I107      1.0  0.50503  0.95886  0.05291  1.0000
  I   I108      1.0  0.70803  0.90627  0.73488  1.0000
  I   I109      1.0  0.26348  0.98579  0.77901  1.0000
  I   I110      1.0  0.36672  0.17160  0.00204  1.0000
  I   I111      1.0  0.08130  0.36703  0.30716  1.0000
  I   I112      1.0  0.92193  0.42886  0.18781  1.0000
  I   I113      1.0  0.02627  0.94336  0.33388  1.0000
  I   I114      1.0  0.18967  0.59234  0.09969  1.0000
  I   I115      1.0  0.69530  0.66510  0.23748  1.0000
  I   I116      1.0  0.64551  0.67455  0.15237  1.0000
  I   I117      1.0  0.70187  0.86580  0.28502  1.0000
  I   I118      1.0  0.53886  0.94464  0.46128  1.0000
  I   I119      1.0  0.47902  0.90122  0.43347  1.0000
  I   I120      1.0  0.53670  0.77160  0.74972  1.0000
  I   I121      1.0  0.37821  0.52514  0.38560  1.0000
  I   I122      1.0  0.27347  0.26908  0.63237  1.0000
  I   I123      1.0  0.29600  0.30312  0.86570  1.0000
  I   I124      1.0  0.81417  0.55205  0.58159  1.0000
  I   I125      1.0  0.54376  0.65915  0.35229  1.0000
  I   I126      1.0  0.87662  0.40155  0.47652  1.0000
  I   I127      1.0  0.01156  0.11424  0.51764  1.0000
  I   I128      1.0  0.75645  0.32580  0.11604  1.0000
  I   I129      1.0  0.88836  0.07441  0.25888  1.0000
  I   I130      1.0  0.00877  0.51880  0.51689  1.0000
  I   I131      1.0  0.90090  0.74492  0.42031  1.0000
  I   I132      1.0  0.60802  0.55307  0.89376  1.0000
  I   I133      1.0  0.32945  0.03756  0.33716  1.0000
  I   I134      1.0  0.56555  0.28561  0.37402  1.0000
  I   I135      1.0  0.62513  0.31089  0.33409  1.0000
  I   I136      1.0  0.46148  0.69516  0.04939  1.0000
  I   I137      1.0  0.25898  0.77224  0.06453  1.0000
  I   I138      1.0  0.67525  0.40673  0.67043  1.0000
  I   I139      1.0  0.97057  0.43846  0.80754  1.0000
  I   I140      1.0  0.90125  0.07411  0.64676  1.0000
  I   I141      1.0  0.00758  0.51934  0.21447  1.0000
  I   I142      1.0  0.49843  0.54779  0.18603  1.0000
  I   I143      1.0  0.72736  0.06789  0.54090  1.0000
  I   I144      1.0  0.41859  0.35447  0.70268  1.0000
  I   I145      1.0  0.84603  0.75821  0.84526  1.0000
  I   I146      1.0  0.77656  0.95021  0.16489  1.0000
  I   I147      1.0  0.85875  0.67487  0.64832  1.0000
  I   I148      1.0  0.40152  0.15498  0.30726  1.0000
  I   I149      1.0  0.10430  0.82898  0.12136  1.0000
  I   I150      1.0  0.09305  0.08713  0.34060  1.0000
  I   I151      1.0  0.04224  0.74575  0.83519  1.0000
  I   I152      1.0  0.15519  0.79217  0.57616  1.0000
  I   I153      1.0  0.82101  0.13185  0.93953  1.0000
  I   I154      1.0  0.09686  0.93082  0.75586  1.0000
  I   I155      1.0  0.08143  0.58548  0.03589  1.0000
  I   I156      1.0  0.62705  0.88596  0.94557  1.0000
  I   I157      1.0  0.29738  0.00492  0.62216  1.0000
  I   I158      1.0  0.06663  0.43444  0.32036  1.0000
  I   I159      1.0  0.35143  0.98901  0.73120  1.0000
  I   I160      1.0  0.95422  0.36529  0.17946  1.0000
  I   I161      1.0  0.11145  0.63215  0.11106  1.0000
  I   I162      1.0  0.98737  0.43728  0.12349  1.0000
  I   I163      1.0  0.76484  0.68485  0.21327  1.0000
  I   I164      1.0  0.74263  0.78507  0.48176  1.0000
  I   I165      1.0  0.26414  0.45857  0.12564  1.0000
  I   I166      1.0  0.49329  0.93208  0.53161  1.0000
  I   I167      1.0  0.52213  0.83619  0.98874  1.0000
  I   I168      1.0  0.62177  0.88413  0.67071  1.0000
  I   I169      1.0  0.21246  0.18278  0.53397  1.0000
  I   I170      1.0  0.24952  0.21036  0.61187  1.0000
  I   I171      1.0  0.40435  0.50770  0.51963  1.0000
  I   I172      1.0  0.81317  0.58501  0.70136  1.0000
  I   I173      1.0  0.84915  0.35319  0.52825  1.0000
  I   I174      1.0  0.85360  0.44073  0.60123  1.0000
  I   I175      1.0  0.73195  0.45404  0.09817  1.0000
  I   I176      1.0  0.90852  0.09923  0.11031  1.0000
  I   I177      1.0  0.02819  0.13192  0.64865  1.0000
  I   I178      1.0  0.85763  0.77405  0.30302  1.0000
  I   I179      1.0  0.69757  0.62554  0.84806  1.0000
  I   I180      1.0  0.01664  0.46087  0.60380  1.0000
  I   I181      1.0  0.87761  0.22983  0.19774  1.0000
  I   I182      1.0  0.55276  0.26337  0.49561  1.0000
  I   I183      1.0  0.29295  0.00614  0.42790  1.0000
  I   I184      1.0  0.33736  0.72160  0.12348  1.0000
  I   I185      1.0  0.66235  0.37171  0.55348  1.0000
  I   I186      1.0  0.48082  0.79733  0.15666  1.0000
  I   I187      1.0  0.86521  0.07646  0.77892  1.0000
  I   I188      1.0  0.93156  0.60648  0.14573  1.0000
  I   I189      1.0  0.95724  0.40732  0.89766  1.0000
  I   I190      1.0  0.63415  0.03441  0.41130  1.0000
  I   I191      1.0  0.37626  0.30038  0.78746  1.0000
  I   I192      1.0  0.58666  0.39389  0.03957  1.0000
  I   I193      1.0  0.93638  0.67661  0.91196  1.0000
  I   I194      1.0  0.81669  0.98630  0.15583  1.0000
  I   I195      1.0  0.82404  0.65729  0.53418  1.0000
  I   I196      1.0  0.34533  0.29757  0.23709  1.0000
  I   I197      1.0  0.04642  0.89487  0.84894  1.0000
  I   I198      1.0  0.11967  0.10126  0.04818  1.0000
  I   I199      1.0  0.95302  0.86043  0.72077  1.0000
  I   I200      1.0  0.18929  0.73450  0.49971  1.0000
  I   I201      1.0  0.76056  0.11943  0.91189  1.0000
  I   I202      1.0  0.56606  0.97083  0.26425  1.0000
  I   I203      1.0  0.08074  0.51552  0.98118  1.0000
  I   I204      1.0  0.66652  0.96008  0.83260  1.0000
  I   I205      1.0  0.39404  0.25968  0.02201  1.0000
  I   I206      1.0  0.14115  0.33559  0.25774  1.0000
  I   I207      1.0  0.26719  0.04654  0.72495  1.0000
  I   I208      1.0  0.95860  0.95448  0.40280  1.0000
  I   I209      1.0  0.16294  0.65380  0.20122  1.0000
  I   I210      1.0  0.97106  0.39483  0.06681  1.0000
  I   I211      1.0  0.69092  0.72282  0.27373  1.0000
  I   I212      1.0  0.74887  0.81200  0.35161  1.0000
  I   I213      1.0  0.36552  0.38199  0.30653  1.0000
  I   I214      1.0  0.46660  0.88729  0.56573  1.0000
  I   I215      1.0  0.52990  0.89055  0.83353  1.0000
  I   I216      1.0  0.63152  0.94118  0.59745  1.0000
  I   I217      1.0  0.20069  0.27172  0.60290  1.0000
  I   I218      1.0  0.26947  0.35973  0.95743  1.0000
  I   I219      1.0  0.31778  0.51273  0.57599  1.0000
  I   I220      1.0  0.54546  0.73392  0.46433  1.0000
  I   I221      1.0  0.83674  0.41571  0.37003  1.0000
  I   I222      1.0  0.87040  0.48683  0.54080  1.0000
  I   I223      1.0  0.72231  0.41484  0.21972  1.0000
  I   I224      1.0  0.95164  0.01294  0.25962  1.0000
  I   I225      1.0  0.03453  0.16773  0.51739  1.0000
  I   I226      1.0  0.95603  0.74598  0.30618  1.0000
  I   I227      1.0  0.62969  0.67944  0.79612  1.0000
  I   I228      1.0  0.93920  0.59118  0.58719  1.0000
  I   I229      1.0  0.86774  0.31910  0.18568  1.0000
  I   I230      1.0  0.64330  0.23383  0.34168  1.0000
  I   I231      1.0  0.34590  0.08373  0.40022  1.0000
  I   I232      1.0  0.35744  0.66081  0.04542  1.0000
  I   I233      1.0  0.60694  0.42635  0.64802  1.0000
  I   I234      1.0  0.54222  0.74946  0.19338  1.0000
  I   I235      1.0  0.95840  0.96222  0.81890  1.0000
  I   I236      1.0  0.93409  0.53512  0.11313  1.0000
  I   I237      1.0  0.90174  0.47562  0.81598  1.0000
  I   I238      1.0  0.68558  0.04239  0.50276  1.0000
  I   I239      1.0  0.33149  0.35791  0.61440  1.0000
  I   I240      1.0  0.51591  0.54805  0.05294  1.0000
  I   I241      1.0  0.87781  0.74596  0.98172  1.0000
  I   I242      1.0  0.73066  0.00424  0.09821  1.0000
  I   I243      1.0  0.88283  0.66711  0.51010  1.0000
  I   I244      1.0  0.30699  0.28541  0.33921  1.0000
  I   I245      1.0  0.06433  0.94866  0.98610  1.0000
  I   I246      1.0  0.15037  0.11676  0.30121  1.0000
  I   I247      1.0  0.97096  0.88757  0.83006  1.0000
  I   I248      1.0  0.22543  0.84729  0.54258  1.0000
  I   I249      1.0  0.74822  0.20510  0.91702  1.0000
  I   I250      1.0  0.42785  0.99813  0.13104  1.0000
  I   I251      1.0  0.06854  0.57121  0.87855  1.0000
  I   I252      1.0  0.67101  0.91213  0.98992  1.0000
  I   I253      1.0  0.33871  0.24264  0.01314  1.0000
  I   I254      1.0  0.12100  0.38510  0.14038  1.0000
  I   I255      1.0  0.32292  0.94399  0.70716  1.0000
  I   I256      1.0  0.08753  0.83916  0.29131  1.0000
  I   I257      1.0  0.14978  0.67574  0.06041  1.0000
  I   I258      1.0  0.99540  0.34629  0.31022  1.0000
  I   I259      1.0  0.77532  0.62574  0.27956  1.0000
  I   I260      1.0  0.70979  0.86679  0.46488  1.0000
  I   I261      1.0  0.23919  0.41605  0.21780  1.0000
  I   I262      1.0  0.51936  0.82914  0.47672  1.0000
  I   I263      1.0  0.51025  0.83479  0.85752  1.0000
  I   I264      1.0  0.56553  0.96140  0.69661  1.0000
  I   I265      1.0  0.16881  0.26181  0.50065  1.0000
  I   I266      1.0  0.22528  0.29585  0.80370  1.0000
  I   I267      1.0  0.37511  0.46622  0.49789  1.0000
  I   I268      1.0  0.56467  0.71155  0.59104  1.0000
  I   I269      1.0  0.79577  0.38033  0.43243  1.0000
  I   I270      1.0  0.84345  0.50120  0.68955  1.0000
  I   I271      1.0  0.75015  0.33133  0.24754  1.0000
  I   I272      1.0  0.97198  0.02522  0.13839  1.0000
  I   I273      1.0  0.08039  0.09652  0.49743  1.0000
  I   I274      1.0  0.90902  0.79799  0.33886  1.0000
  I   I275      1.0  0.60891  0.56934  0.75890  1.0000
  I   I276      1.0  0.94301  0.52023  0.55318  1.0000
  I   I277      1.0  0.90033  0.27763  0.27969  1.0000
  I   I278      1.0  0.65736  0.25684  0.44211  1.0000
  I   I279      1.0  0.40779  0.01573  0.46737  1.0000
  I   I280      1.0  0.24912  0.73962  0.94477  1.0000
  I   I281      1.0  0.66059  0.49939  0.48767  1.0000
  I   I282      1.0  0.46778  0.75959  0.06750  1.0000
  I   I283      1.0  0.02317  0.98612  0.82307  1.0000
  I   I284      1.0  0.93333  0.55490  0.25184  1.0000
  I   I285      1.0  0.97211  0.47754  0.90589  1.0000
  I   I286      1.0  0.69695  0.12121  0.42114  1.0000
  I   I287      1.0  0.43703  0.30541  0.79496  1.0000
  I   I288      1.0  0.56852  0.51111  0.15031  1.0000
  I   I289      1.0  0.86675  0.68304  0.87087  1.0000
  I   I290      1.0  0.89522  0.98166  0.03476  1.0000
  I   I291      1.0  0.71190  0.09997  0.01202  1.0000
  I   I292      1.0  0.37778  0.21967  0.22332  1.0000
  I   I293      1.0  0.16751  0.82833  0.12385  1.0000
  I   I294      1.0  0.09361  0.13775  0.24473  1.0000
  I   I295      1.0  0.01983  0.81336  0.78781  1.0000
  I   I296      1.0  0.19951  0.81566  0.64941  1.0000
  I   I297      1.0  0.71357  0.21062  0.09798  1.0000
  I   I298      1.0  0.07923  0.87327  0.71363  1.0000
  I   I299      1.0  0.50474  0.95410  0.28237  1.0000
  I   I300      1.0  0.72860  0.91415  0.86738  1.0000
  I   I301      1.0  0.30286  0.99488  0.86598  1.0000
  I   I302      1.0  0.38707  0.23462  0.89592  1.0000
  I   I303      1.0  0.09907  0.33678  0.14595  1.0000
  I   I304      1.0  0.95704  0.43906  0.24833  1.0000
  I   I305      1.0  0.06931  0.89744  0.22363  1.0000
  I   I306      1.0  0.22616  0.65345  0.63098  1.0000
  I   I307      1.0  0.75166  0.68622  0.35558  1.0000
  I   I308      1.0  0.66356  0.87110  0.39906  1.0000
  I   I309      1.0  0.36661  0.43000  0.20464  1.0000
  I   I310      1.0  0.54174  0.91257  0.64190  1.0000
  I   I311      1.0  0.44447  0.90749  0.92037  1.0000
  I   I312      1.0  0.55783  0.75272  0.90005  1.0000
  I   I313      1.0  0.36781  0.53826  0.63486  1.0000
  I   I314      1.0  0.24874  0.29194  0.51449  1.0000
  I   I315      1.0  0.20861  0.38861  0.87189  1.0000
  I   I316      1.0  0.76811  0.55875  0.75092  1.0000
  I   I317      1.0  0.53751  0.73256  0.33180  1.0000
  I   I318      1.0  0.78478  0.48883  0.38208  1.0000
  I   I319      1.0  0.06551  0.05104  0.58679  1.0000
  I   I320      1.0  0.69236  0.38802  0.15815  1.0000
  I   I321      1.0  0.94801  0.08244  0.24679  1.0000
  I   I322      1.0  0.95942  0.76266  0.17036  1.0000
  I   I323      1.0  0.56248  0.63246  0.83874  1.0000
  I   I324      1.0  0.95953  0.60590  0.70836  1.0000
  I   I325      1.0  0.84963  0.28273  0.09134  1.0000
  I   I326      1.0  0.58754  0.31844  0.45995  1.0000
  I   I327      1.0  0.40659  0.01286  0.32040  1.0000
  I   I328      1.0  0.22421  0.71579  0.05761  1.0000
  I   I329      1.0  0.68645  0.42623  0.53720  1.0000
  I   I330      1.0  0.53442  0.69995  0.09056  1.0000
  I   I331      1.0  0.89795  0.41461  0.83485  1.0000
  I   I332      1.0  0.99080  0.94735  0.91681  1.0000
  I   I333      1.0  0.00222  0.61222  0.17399  1.0000
  I   I334      1.0  0.54335  0.46682  0.15545  1.0000
  I   I335      1.0  0.59500  0.11030  0.42157  1.0000
  I   I336      1.0  0.35420  0.40465  0.64378  1.0000
  I   I337      1.0  0.91094  0.69635  0.78638  1.0000
  I   I338      1.0  0.83368  0.03453  0.08164  1.0000
  I   I339      1.0  0.67234  0.07588  0.10326  1.0000
  I   I340      1.0  0.33654  0.16772  0.21888  1.0000
  I   I341      1.0  0.13251  0.93314  0.00055  1.0000
  I   I342      1.0  0.13116  0.07681  0.17685  1.0000
  I   I343      1.0  0.97510  0.78895  0.92572  1.0000
  I   I344      1.0  0.24595  0.78068  0.52734  1.0000
  I   I345      1.0  0.69758  0.24843  0.00151  1.0000
  I   I346      1.0  0.12350  0.85044  0.81255  1.0000
  I   I347      1.0  0.50059  0.01762  0.31686  1.0000
  I   I348      1.0  0.69457  0.86825  0.88252  1.0000
  I   I349      1.0  0.26757  0.06930  0.85573  1.0000
  I   I350      1.0  0.44414  0.17794  0.93037  1.0000
  I   I351      1.0  0.14626  0.40233  0.26312  1.0000
  I   I352      1.0  0.01174  0.38257  0.22557  1.0000
  I   I353      1.0  0.06552  0.88124  0.41261  1.0000
  I   I354      1.0  0.31218  0.61659  0.62936  1.0000
  I   I355      1.0  0.61329  0.71901  0.26307  1.0000
  I   I356      1.0  0.66714  0.92908  0.35760  1.0000
  I   I357      1.0  0.28811  0.47241  0.23206  1.0000
  I   I358      1.0  0.59645  0.90078  0.53980  1.0000
  I   I359      1.0  0.47178  0.96251  0.89552  1.0000
  I   I360      1.0  0.55830  0.70038  0.81392  1.0000
  I   I361      1.0  0.40083  0.46234  0.62149  1.0000
  I   I362      1.0  0.31192  0.22264  0.54416  1.0000
  I   I363      1.0  0.16001  0.34842  0.86041  1.0000
  I   I364      1.0  0.75397  0.59607  0.61628  1.0000
  I   I365      1.0  0.47961  0.73339  0.58539  1.0000
  I   I366      1.0  0.85074  0.47894  0.40061  1.0000
  I   I367      1.0  0.13748  0.05103  0.57719  1.0000
  I   I368      1.0  0.68252  0.43212  0.05200  1.0000
  I   I369      1.0  0.84557  0.14056  0.18944  1.0000
  I   I370      1.0  0.91672  0.70363  0.29774  1.0000
  I   I371      1.0  0.62663  0.61181  0.90893  1.0000
  I   I372      1.0  0.96008  0.53508  0.68014  1.0000
  I   I373      1.0  0.94432  0.26769  0.17613  1.0000
  I   I374      1.0  0.49333  0.32422  0.43233  1.0000
  I   I375      1.0  0.33736  0.02331  0.52728  1.0000
  I   I376      1.0  0.28658  0.69935  0.12062  1.0000
  I   I377      1.0  0.59491  0.52546  0.54444  1.0000
  I   I378      1.0  0.50506  0.71772  0.21213  1.0000
  I   I379      1.0  0.96714  0.36272  0.79339  1.0000
  I   I380      1.0  0.82613  0.13680  0.67323  1.0000
  I   I381      1.0  0.98425  0.56744  0.08606  1.0000
  I   I382      1.0  0.61432  0.42372  0.12719  1.0000
  I   I383      1.0  0.64602  0.12358  0.50050  1.0000
  I   I384      1.0  0.36894  0.37330  0.80824  1.0000
