data_image0
_chemical_formula_structural       Ti96I384
_chemical_formula_sum              "Ti96 I384"
_cell_length_a       69.6502
_cell_length_b       69.3943
_cell_length_c       34.0221
_cell_angle_alpha    88.7757
_cell_angle_beta     88.7757
_cell_angle_gamma    62.1586

_space_group_name_H-M_alt    "P 1"
_space_group_IT_number       1

loop_
  _space_group_symop_operation_xyz
  'x, y, z'

loop_
  _atom_site_type_symbol
  _atom_site_label
  _atom_site_symmetry_multiplicity
  _atom_site_fract_x
  _atom_site_fract_y
  _atom_site_fract_z
  _atom_site_occupancy
  Ti  Ti1       1.0  0.04798  0.97495  0.51024  1.0000
  Ti  Ti2       1.0  0.04184  0.13917  0.23387  1.0000
  Ti  Ti3       1.0  0.43707  0.97177  0.38472  1.0000
  Ti  Ti4       1.0  0.95302  0.42558  0.46857  1.0000
  Ti  Ti5       1.0  0.30395  0.66275  0.19869  1.0000
  Ti  Ti6       1.0  0.63973  0.00500  0.03432  1.0000
  Ti  Ti7       1.0  0.93964  0.53873  0.61085  1.0000
  Ti  Ti8       1.0  0.25748  0.62012  0.42108  1.0000
  Ti  Ti9       1.0  0.35700  0.05976  0.65504  1.0000
  Ti  Ti10      1.0  0.21964  0.49452  0.63471  1.0000
  Ti  Ti11      1.0  0.22298  0.32888  0.70088  1.0000
  Ti  Ti12      1.0  0.94092  0.65095  0.97028  1.0000
  Ti  Ti13      1.0  0.81664  0.25355  0.69584  1.0000
  Ti  Ti14      1.0  0.82583  0.11475  0.66485  1.0000
  Ti  Ti15      1.0  0.73032  0.81955  0.69957  1.0000
  Ti  Ti16      1.0  0.19868  0.51299  0.74002  1.0000
  Ti  Ti17      1.0  0.31048  0.91760  0.54970  1.0000
  Ti  Ti18      1.0  0.57473  0.73666  0.58595  1.0000
  Ti  Ti19      1.0  0.52588  0.59854  0.58043  1.0000
  Ti  Ti20      1.0  0.41322  0.19649  0.71321  1.0000
  Ti  Ti21      1.0  0.29128  0.55784  0.43226  1.0000
  Ti  Ti22      1.0  0.61956  0.91238  0.49896  1.0000
  Ti  Ti23      1.0  0.27794  0.12545  0.31520  1.0000
  Ti  Ti24      1.0  0.24376  0.74282  0.72981  1.0000
  Ti  Ti25      1.0  0.47507  0.02971  0.99942  1.0000
  Ti  Ti26      1.0  0.09935  0.88256  0.01977  1.0000
  Ti  Ti27      1.0  0.78096  0.19857  0.04275  1.0000
  Ti  Ti28      1.0  0.56223  0.79212  0.97655  1.0000
  Ti  Ti29      1.0  0.04716  0.77063  0.56318  1.0000
  Ti  Ti30      1.0  0.36217  0.91719  0.82954  1.0000
  Ti  Ti31      1.0  0.13689  0.39190  0.77257  1.0000
  Ti  Ti32      1.0  0.21371  0.08186  0.86063  1.0000
  Ti  Ti33      1.0  0.22249  0.84756  0.48668  1.0000
  Ti  Ti34      1.0  0.46518  0.34324  0.06699  1.0000
  Ti  Ti35      1.0  0.70749  0.60490  0.67631  1.0000
  Ti  Ti36      1.0  0.16896  0.17087  0.18255  1.0000
  Ti  Ti37      1.0  0.16083  0.18216  0.62902  1.0000
  Ti  Ti38      1.0  0.47312  0.51817  0.18401  1.0000
  Ti  Ti39      1.0  0.08296  0.52387  0.17978  1.0000
  Ti  Ti40      1.0  0.95236  0.48538  0.91261  1.0000
  Ti  Ti41      1.0  0.39824  0.27181  0.43484  1.0000
  Ti  Ti42      1.0  0.16846  0.91335  0.66225  1.0000
  Ti  Ti43      1.0  0.29472  0.98691  0.25211  1.0000
  Ti  Ti44      1.0  0.67036  0.90485  0.90871  1.0000
  Ti  Ti45      1.0  0.21390  0.35453  0.14428  1.0000
  Ti  Ti46      1.0  0.72535  0.45554  0.22207  1.0000
  Ti  Ti47      1.0  0.48993  0.48749  0.64178  1.0000
  Ti  Ti48      1.0  0.85619  0.03653  0.31401  1.0000
  Ti  Ti49      1.0  0.03755  0.07981  0.56913  1.0000
  Ti  Ti50      1.0  0.12098  0.31845  0.30558  1.0000
  Ti  Ti51      1.0  0.05392  0.13116  0.34065  1.0000
  Ti  Ti52      1.0  0.65417  0.14396  0.97891  1.0000
  Ti  Ti53      1.0  0.38309  0.79733  0.31560  1.0000
  Ti  Ti54      1.0  0.90016  0.89323  0.11449  1.0000
  Ti  Ti55      1.0  0.94265  0.55344  0.49266  1.0000
  Ti  Ti56      1.0  0.65361  0.29744  0.17174  1.0000
  Ti  Ti57      1.0  0.38509  0.07567  0.59008  1.0000
  Ti  Ti58      1.0  0.65654  0.29301  0.64760  1.0000
  Ti  Ti59      1.0  0.62716  0.28987  0.93821  1.0000
  Ti  Ti60      1.0  0.89857  0.69097  0.07551  1.0000
  Ti  Ti61      1.0  0.69872  0.81083  0.61880  1.0000
  Ti  Ti62      1.0  0.81781  0.22337  0.57692  1.0000
  Ti  Ti63      1.0  0.87137  0.09057  0.57299  1.0000
  Ti  Ti64      1.0  0.53589  0.72431  0.65373  1.0000
  Ti  Ti65      1.0  0.74826  0.96007  0.68259  1.0000
  Ti  Ti66      1.0  0.34958  0.24535  0.93346  1.0000
  Ti  Ti67      1.0  0.57636  0.88359  0.19150  1.0000
  Ti  Ti68      1.0  0.51189  0.65307  0.53756  1.0000
  Ti  Ti69      1.0  0.03327  0.88352  0.03155  1.0000
  Ti  Ti70      1.0  0.36696  0.91759  0.26232  1.0000
  Ti  Ti71      1.0  0.25682  0.18078  0.24992  1.0000
  Ti  Ti72      1.0  0.48632  0.43867  0.67293  1.0000
  Ti  Ti73      1.0  0.77683  0.14420  0.08406  1.0000
  Ti  Ti74      1.0  0.45559  0.07680  0.06789  1.0000
  Ti  Ti75      1.0  0.36119  0.80048  0.97017  1.0000
  Ti  Ti76      1.0  0.41562  0.87466  0.76468  1.0000
  Ti  Ti77      1.0  0.51107  0.83903  0.89436  1.0000
  Ti  Ti78      1.0  0.11125  0.73696  0.53102  1.0000
  Ti  Ti79      1.0  0.56614  0.70164  0.45650  1.0000
  Ti  Ti80      1.0  0.00477  0.39684  0.53362  1.0000
  Ti  Ti81      1.0  0.19267  0.07186  0.74569  1.0000
  Ti  Ti82      1.0  0.46236  0.23313  0.19007  1.0000
  Ti  Ti83      1.0  0.67892  0.64131  0.62294  1.0000
  Ti  Ti84      1.0  0.16936  0.16492  0.09380  1.0000
  Ti  Ti85      1.0  0.13990  0.20319  0.54953  1.0000
  Ti  Ti86      1.0  0.35495  0.30664  0.87519  1.0000
  Ti  Ti87      1.0  0.28054  0.34920  0.18945  1.0000
  Ti  Ti88      1.0  0.59002  0.14549  0.00499  1.0000
  Ti  Ti89      1.0  0.39296  0.31785  0.44837  1.0000
  Ti  Ti90      1.0  0.16838  0.96327  0.64632  1.0000
  Ti  Ti91      1.0  0.15155  0.58098  0.97147  1.0000
  Ti  Ti92      1.0  0.35915  0.65512  0.98018  1.0000
  Ti  Ti93      1.0  0.14347  0.72214  0.15626  1.0000
  Ti  Ti94      1.0  0.86742  0.98498  0.33909  1.0000
  Ti  Ti95      1.0  0.72576  0.40678  0.70782  1.0000
  Ti  Ti96      1.0  0.52742  0.56634  0.74878  1.0000
  I   I1        1.0  0.51525  0.49070  0.58999  1.0000
  I   I2        1.0  0.05011  0.10359  0.28184  1.0000
  I   I3        1.0  0.03354  0.11621  0.58585  1.0000
  I   I4        1.0  0.35394  0.79332  0.27407  1.0000
  I   I5        1.0  0.62855  0.02108  0.96269  1.0000
  I   I6        1.0  0.92092  0.91455  0.14089  1.0000
  I   I7        1.0  0.28989  0.59509  0.36970  1.0000
  I   I8        1.0  0.61665  0.32127  0.12905  1.0000
  I   I9        1.0  0.40796  0.06808  0.52762  1.0000
  I   I10       1.0  0.17849  0.49344  0.77553  1.0000
  I   I11       1.0  0.21030  0.30689  0.74976  1.0000
  I   I12       1.0  0.31107  0.63968  0.26059  1.0000
  I   I13       1.0  0.77418  0.26532  0.71057  1.0000
  I   I14       1.0  0.83636  0.12324  0.59421  1.0000
  I   I15       1.0  0.72984  0.84638  0.75889  1.0000
  I   I16       1.0  0.22953  0.50136  0.78913  1.0000
  I   I17       1.0  0.31911  0.23727  0.92780  1.0000
  I   I18       1.0  0.58129  0.77022  0.57493  1.0000
  I   I19       1.0  0.37746  0.22277  0.74938  1.0000
  I   I20       1.0  0.26036  0.33115  0.71727  1.0000
  I   I21       1.0  0.27578  0.64468  0.43168  1.0000
  I   I22       1.0  0.27073  0.09256  0.30338  1.0000
  I   I23       1.0  0.29238  0.17513  0.21602  1.0000
  I   I24       1.0  0.39546  0.88102  0.28940  1.0000
  I   I25       1.0  0.43084  0.11729  0.07796  1.0000
  I   I26       1.0  0.40019  0.78823  0.99154  1.0000
  I   I27       1.0  0.77845  0.18083  0.11930  1.0000
  I   I28       1.0  0.55899  0.77422  0.04029  1.0000
  I   I29       1.0  0.08777  0.72391  0.58729  1.0000
  I   I30       1.0  0.37100  0.88366  0.78194  1.0000
  I   I31       1.0  0.99186  0.43358  0.57167  1.0000
  I   I32       1.0  0.20498  0.10203  0.79028  1.0000
  I   I33       1.0  0.60473  0.66288  0.45919  1.0000
  I   I34       1.0  0.68378  0.59759  0.72952  1.0000
  I   I35       1.0  0.20459  0.15486  0.14580  1.0000
  I   I36       1.0  0.43344  0.37612  0.03624  1.0000
  I   I37       1.0  0.13151  0.22393  0.62823  1.0000
  I   I38       1.0  0.05158  0.55294  0.13263  1.0000
  I   I39       1.0  0.12108  0.18056  0.59752  1.0000
  I   I40       1.0  0.41466  0.23102  0.47536  1.0000
  I   I41       1.0  0.19525  0.89137  0.60517  1.0000
  I   I42       1.0  0.91655  0.48234  0.92795  1.0000
  I   I43       1.0  0.66549  0.28449  0.72310  1.0000
  I   I44       1.0  0.67300  0.93982  0.91396  1.0000
  I   I45       1.0  0.24028  0.37560  0.13643  1.0000
  I   I46       1.0  0.70736  0.38242  0.69113  1.0000
  I   I47       1.0  0.46933  0.52774  0.67671  1.0000
  I   I48       1.0  0.86577  0.04991  0.25044  1.0000
  I   I49       1.0  0.05356  0.07469  0.49351  1.0000
  I   I50       1.0  0.09790  0.10399  0.33821  1.0000
  I   I51       1.0  0.03413  0.11835  0.39463  1.0000
  I   I52       1.0  0.99359  0.42324  0.46825  1.0000
  I   I53       1.0  0.36769  0.84005  0.30666  1.0000
  I   I54       1.0  0.91873  0.86728  0.05929  1.0000
  I   I55       1.0  0.90802  0.55031  0.52926  1.0000
  I   I56       1.0  0.33142  0.53410  0.40556  1.0000
  I   I57       1.0  0.38212  0.03481  0.71014  1.0000
  I   I58       1.0  0.26027  0.48191  0.60195  1.0000
  I   I59       1.0  0.61953  0.29435  0.01314  1.0000
  I   I60       1.0  0.91338  0.69507  0.99249  1.0000
  I   I61       1.0  0.85288  0.18642  0.56579  1.0000
  I   I62       1.0  0.85083  0.23478  0.74226  1.0000
  I   I63       1.0  0.86039  0.10552  0.50435  1.0000
  I   I64       1.0  0.22988  0.52439  0.67987  1.0000
  I   I65       1.0  0.71309  0.98680  0.72505  1.0000
  I   I66       1.0  0.35374  0.24243  0.01199  1.0000
  I   I67       1.0  0.55429  0.61091  0.53989  1.0000
  I   I68       1.0  0.41505  0.21277  0.63856  1.0000
  I   I69       1.0  0.00526  0.87961  0.07379  1.0000
  I   I70       1.0  0.34665  0.90207  0.21656  1.0000
  I   I71       1.0  0.31372  0.11848  0.27448  1.0000
  I   I72       1.0  0.50816  0.44911  0.71737  1.0000
  I   I73       1.0  0.79134  0.10426  0.04636  1.0000
  I   I74       1.0  0.10251  0.90087  0.94939  1.0000
  I   I75       1.0  0.07359  0.87009  0.98609  1.0000
  I   I76       1.0  0.51920  0.80359  0.95389  1.0000
  I   I77       1.0  0.55685  0.80448  0.89137  1.0000
  I   I78       1.0  0.04125  0.99439  0.57538  1.0000
  I   I79       1.0  0.24257  0.82140  0.54430  1.0000
  I   I80       1.0  0.10593  0.42051  0.72729  1.0000
  I   I81       1.0  0.21019  0.04889  0.81502  1.0000
  I   I82       1.0  0.45148  0.26164  0.25245  1.0000
  I   I83       1.0  0.67505  0.67877  0.66017  1.0000
  I   I84       1.0  0.13999  0.20486  0.13950  1.0000
  I   I85       1.0  0.17961  0.17787  0.55090  1.0000
  I   I86       1.0  0.35886  0.33192  0.92548  1.0000
  I   I87       1.0  0.07327  0.50330  0.23374  1.0000
  I   I88       1.0  0.93918  0.51770  0.85868  1.0000
  I   I89       1.0  0.40133  0.34962  0.42966  1.0000
  I   I90       1.0  0.15200  0.00387  0.66782  1.0000
  I   I91       1.0  0.11906  0.57111  0.98880  1.0000
  I   I92       1.0  0.40030  0.63669  0.99449  1.0000
  I   I93       1.0  0.68758  0.88267  0.97272  1.0000
  I   I94       1.0  0.83370  0.97370  0.31158  1.0000
  I   I95       1.0  0.76421  0.45506  0.23695  1.0000
  I   I96       1.0  0.50980  0.54024  0.77498  1.0000
  I   I97       1.0  0.42007  0.95054  0.42051  1.0000
  I   I98       1.0  0.08745  0.95715  0.47963  1.0000
  I   I99       1.0  0.05039  0.17175  0.23903  1.0000
  I   I100      1.0  0.97249  0.38805  0.43042  1.0000
  I   I101      1.0  0.64310  0.18264  0.94866  1.0000
  I   I102      1.0  0.28333  0.70262  0.22959  1.0000
  I   I103      1.0  0.92151  0.58178  0.61336  1.0000
  I   I104      1.0  0.95426  0.52476  0.44126  1.0000
  I   I105      1.0  0.39389  0.07780  0.66303  1.0000
  I   I106      1.0  0.96941  0.60727  0.98199  1.0000
  I   I107      1.0  0.21534  0.48283  0.56691  1.0000
  I   I108      1.0  0.91676  0.65022  0.02949  1.0000
  I   I109      1.0  0.76299  0.82319  0.67232  1.0000
  I   I110      1.0  0.80749  0.26352  0.60563  1.0000
  I   I111      1.0  0.89767  0.10107  0.61415  1.0000
  I   I112      1.0  0.55560  0.74887  0.65722  1.0000
  I   I113      1.0  0.76668  0.92161  0.71590  1.0000
  I   I114      1.0  0.35236  0.91043  0.57947  1.0000
  I   I115      1.0  0.54263  0.91514  0.15037  1.0000
  I   I116      1.0  0.56615  0.87876  0.26619  1.0000
  I   I117      1.0  0.54139  0.66764  0.52332  1.0000
  I   I118      1.0  0.58560  0.90378  0.50731  1.0000
  I   I119      1.0  0.38257  0.93953  0.22841  1.0000
  I   I120      1.0  0.51916  0.39679  0.65228  1.0000
  I   I121      1.0  0.79460  0.15383  0.01876  1.0000
  I   I122      1.0  0.46804  0.99479  0.98929  1.0000
  I   I123      1.0  0.34679  0.84094  0.94529  1.0000
  I   I124      1.0  0.36710  0.93610  0.89786  1.0000
  I   I125      1.0  0.56317  0.82643  0.00603  1.0000
  I   I126      1.0  0.02662  0.77976  0.63096  1.0000
  I   I127      1.0  0.24441  0.86986  0.49513  1.0000
  I   I128      1.0  0.93587  0.45672  0.41587  1.0000
  I   I129      1.0  0.23643  0.04066  0.89028  1.0000
  I   I130      1.0  0.17504  0.12889  0.15049  1.0000
  I   I131      1.0  0.47771  0.22856  0.11386  1.0000
  I   I132      1.0  0.72058  0.61979  0.60657  1.0000
  I   I133      1.0  0.10522  0.54245  0.20412  1.0000
  I   I134      1.0  0.43698  0.51530  0.20533  1.0000
  I   I135      1.0  0.33865  0.27107  0.86835  1.0000
  I   I136      1.0  0.14040  0.96897  0.59148  1.0000
  I   I137      1.0  0.57524  0.17215  0.06045  1.0000
  I   I138      1.0  0.36307  0.26723  0.43110  1.0000
  I   I139      1.0  0.18712  0.54497  0.97754  1.0000
  I   I140      1.0  0.34320  0.63620  0.03535  1.0000
  I   I141      1.0  0.15753  0.71074  0.22414  1.0000
  I   I142      1.0  0.82489  0.02373  0.32204  1.0000
  I   I143      1.0  0.70319  0.43519  0.25931  1.0000
  I   I144      1.0  0.51380  0.59778  0.79747  1.0000
  I   I145      1.0  0.03511  0.01122  0.47498  1.0000
  I   I146      1.0  0.01638  0.15836  0.17644  1.0000
  I   I147      1.0  0.44831  0.96639  0.31029  1.0000
  I   I148      1.0  0.67687  0.13034  0.91083  1.0000
  I   I149      1.0  0.27968  0.65480  0.15219  1.0000
  I   I150      1.0  0.67977  0.97658  0.02157  1.0000
  I   I151      1.0  0.90898  0.59005  0.45947  1.0000
  I   I152      1.0  0.24508  0.62970  0.50261  1.0000
  I   I153      1.0  0.37500  0.11672  0.59693  1.0000
  I   I154      1.0  0.30100  0.94657  0.25251  1.0000
  I   I155      1.0  0.23811  0.31748  0.62980  1.0000
  I   I156      1.0  0.86394  0.68981  0.09946  1.0000
  I   I157      1.0  0.75325  0.79234  0.75781  1.0000
  I   I158      1.0  0.89468  0.04967  0.55650  1.0000
  I   I159      1.0  0.70485  0.82471  0.54775  1.0000
  I   I160      1.0  0.57244  0.68711  0.63957  1.0000
  I   I161      1.0  0.29306  0.95430  0.50361  1.0000
  I   I162      1.0  0.53040  0.73657  0.56915  1.0000
  I   I163      1.0  0.50442  0.58077  0.55361  1.0000
  I   I164      1.0  0.49724  0.67882  0.59677  1.0000
  I   I165      1.0  0.28436  0.52886  0.47031  1.0000
  I   I166      1.0  0.62938  0.94328  0.46957  1.0000
  I   I167      1.0  0.27693  0.17372  0.31861  1.0000
  I   I168      1.0  0.26545  0.76344  0.71110  1.0000
  I   I169      1.0  0.48374  0.07708  0.00705  1.0000
  I   I170      1.0  0.45073  0.03970  0.07717  1.0000
  I   I171      1.0  0.80173  0.12263  0.14523  1.0000
  I   I172      1.0  0.42678  0.83467  0.77155  1.0000
  I   I173      1.0  0.13796  0.69629  0.50504  1.0000
  I   I174      1.0  0.40794  0.88910  0.84847  1.0000
  I   I175      1.0  0.11387  0.40934  0.83353  1.0000
  I   I176      1.0  0.17414  0.08845  0.88681  1.0000
  I   I177      1.0  0.58424  0.71592  0.40060  1.0000
  I   I178      1.0  0.47416  0.19182  0.18326  1.0000
  I   I179      1.0  0.65192  0.64076  0.56096  1.0000
  I   I180      1.0  0.14033  0.16300  0.22883  1.0000
  I   I181      1.0  0.12875  0.24006  0.51802  1.0000
  I   I182      1.0  0.38485  0.21129  0.91226  1.0000
  I   I183      1.0  0.30363  0.35729  0.14040  1.0000
  I   I184      1.0  0.55791  0.16004  0.95465  1.0000
  I   I185      1.0  0.38603  0.29063  0.50763  1.0000
  I   I186      1.0  0.18020  0.88265  0.71029  1.0000
  I   I187      1.0  0.35518  0.69519  0.97233  1.0000
  I   I188      1.0  0.62586  0.92847  0.91687  1.0000
  I   I189      1.0  0.21404  0.31567  0.12031  1.0000
  I   I190      1.0  0.74156  0.42769  0.16157  1.0000
  I   I191      1.0  0.15110  0.28612  0.34897  1.0000
  I   I192      1.0  0.89183  0.00919  0.35583  1.0000
  I   I193      1.0  0.08464  0.77873  0.57121  1.0000
  I   I194      1.0  0.08509  0.34081  0.35453  1.0000
  I   I195      1.0  0.47212  0.95431  0.43322  1.0000
  I   I196      1.0  0.91721  0.41873  0.48270  1.0000
  I   I197      1.0  0.61900  0.32801  0.65789  1.0000
  I   I198      1.0  0.63966  0.03690  0.07352  1.0000
  I   I199      1.0  0.96558  0.51980  0.67342  1.0000
  I   I200      1.0  0.63876  0.28536  0.23338  1.0000
  I   I201      1.0  0.32282  0.05482  0.63344  1.0000
  I   I202      1.0  0.59139  0.31612  0.90447  1.0000
  I   I203      1.0  0.01905  0.88814  0.95568  1.0000
  I   I204      1.0  0.93341  0.67275  0.12289  1.0000
  I   I205      1.0  0.80935  0.29322  0.69706  1.0000
  I   I206      1.0  0.84955  0.12461  0.71048  1.0000
  I   I207      1.0  0.73947  0.78253  0.63998  1.0000
  I   I208      1.0  0.17469  0.52001  0.66278  1.0000
  I   I209      1.0  0.27779  0.92930  0.58977  1.0000
  I   I210      1.0  0.58261  0.72189  0.50884  1.0000
  I   I211      1.0  0.57900  0.84736  0.15399  1.0000
  I   I212      1.0  0.41580  0.15511  0.72446  1.0000
  I   I213      1.0  0.02150  0.92320  0.03930  1.0000
  I   I214      1.0  0.62681  0.91331  0.57403  1.0000
  I   I215      1.0  0.28998  0.12138  0.38897  1.0000
  I   I216      1.0  0.20453  0.76890  0.73877  1.0000
  I   I217      1.0  0.48435  0.02913  0.92327  1.0000
  I   I218      1.0  0.32811  0.80314  0.01310  1.0000
  I   I219      1.0  0.82180  0.17971  0.05715  1.0000
  I   I220      1.0  0.51871  0.87267  0.88907  1.0000
  I   I221      1.0  0.02671  0.75619  0.51283  1.0000
  I   I222      1.0  0.37846  0.93380  0.78012  1.0000
  I   I223      1.0  0.12628  0.36250  0.77319  1.0000
  I   I224      1.0  0.23613  0.05074  0.72799  1.0000
  I   I225      1.0  0.24740  0.82891  0.42727  1.0000
  I   I226      1.0  0.42438  0.25250  0.15645  1.0000
  I   I227      1.0  0.72022  0.62569  0.73203  1.0000
  I   I228      1.0  0.13847  0.18111  0.04046  1.0000
  I   I229      1.0  0.14929  0.16996  0.68812  1.0000
  I   I230      1.0  0.48295  0.51840  0.11155  1.0000
  I   I231      1.0  0.10049  0.50124  0.12181  1.0000
  I   I232      1.0  0.79953  0.10312  0.70665  1.0000
  I   I233      1.0  0.42728  0.28797  0.40399  1.0000
  I   I234      1.0  0.20466  0.95723  0.60859  1.0000
  I   I235      1.0  0.30218  0.99601  0.17466  1.0000
  I   I236      1.0  0.11566  0.70988  0.12426  1.0000
  I   I237      1.0  0.15483  0.59756  0.04427  1.0000
  I   I238      1.0  0.69504  0.44654  0.69925  1.0000
  I   I239      1.0  0.56452  0.55892  0.71441  1.0000
  I   I240      1.0  0.86149  0.97807  0.41443  1.0000
  I   I241      1.0  0.06133  0.04688  0.61058  1.0000
  I   I242      1.0  0.06400  0.15801  0.37335  1.0000
  I   I243      1.0  0.41477  0.01166  0.39989  1.0000
  I   I244      1.0  0.62167  0.13008  0.95167  1.0000
  I   I245      1.0  0.37788  0.79682  0.39130  1.0000
  I   I246      1.0  0.60424  0.00774  0.06470  1.0000
  I   I247      1.0  0.97423  0.52904  0.55378  1.0000
  I   I248      1.0  0.24540  0.58185  0.41511  1.0000
  I   I249      1.0  0.34112  0.08418  0.58794  1.0000
  I   I250      1.0  0.66058  0.29709  0.93399  1.0000
  I   I251      1.0  0.18513  0.35818  0.66894  1.0000
  I   I252      1.0  0.93538  0.66401  0.89935  1.0000
  I   I253      1.0  0.81348  0.24183  0.50191  1.0000
  I   I254      1.0  0.79242  0.15508  0.66613  1.0000
  I   I255      1.0  0.69289  0.82010  0.70262  1.0000
  I   I256      1.0  0.78670  0.96025  0.68603  1.0000
  I   I257      1.0  0.31886  0.88756  0.50036  1.0000
  I   I258      1.0  0.52451  0.70688  0.71153  1.0000
  I   I259      1.0  0.60650  0.89273  0.17358  1.0000
  I   I260      1.0  0.52725  0.60966  0.66391  1.0000
  I   I261      1.0  0.22449  0.65051  0.38808  1.0000
  I   I262      1.0  0.64958  0.87581  0.47613  1.0000
  I   I263      1.0  0.24067  0.16226  0.32029  1.0000
  I   I264      1.0  0.26357  0.71403  0.78427  1.0000
  I   I265      1.0  0.43331  0.07074  0.00210  1.0000
  I   I266      1.0  0.06587  0.87033  0.08602  1.0000
  I   I267      1.0  0.73926  0.14713  0.09725  1.0000
  I   I268      1.0  0.50259  0.83345  0.81946  1.0000
  I   I269      1.0  0.13365  0.76059  0.52432  1.0000
  I   I270      1.0  0.45052  0.87693  0.75435  1.0000
  I   I271      1.0  0.16445  0.40695  0.75726  1.0000
  I   I272      1.0  0.18156  0.08133  0.67264  1.0000
  I   I273      1.0  0.18418  0.87775  0.46471  1.0000
  I   I274      1.0  0.50139  0.33896  0.03323  1.0000
  I   I275      1.0  0.65349  0.64682  0.68535  1.0000
  I   I276      1.0  0.17663  0.13316  0.04595  1.0000
  I   I277      1.0  0.50180  0.23345  0.23067  1.0000
  I   I278      1.0  0.49416  0.53749  0.21570  1.0000
  I   I279      1.0  0.30123  0.31045  0.22227  1.0000
  I   I280      1.0  0.62548  0.15775  0.04924  1.0000
  I   I281      1.0  0.40618  0.25052  0.37107  1.0000
  I   I282      1.0  0.14721  0.95242  0.70937  1.0000
  I   I283      1.0  0.25433  0.99672  0.27587  1.0000
  I   I284      1.0  0.12812  0.76422  0.15722  1.0000
  I   I285      1.0  0.20861  0.35213  0.22063  1.0000
  I   I286      1.0  0.75519  0.39005  0.65264  1.0000
  I   I287      1.0  0.52079  0.49129  0.68654  1.0000
  I   I288      1.0  0.89741  0.94674  0.31988  1.0000
  I   I289      1.0  0.00089  0.08374  0.58251  1.0000
  I   I290      1.0  0.12699  0.35503  0.30618  1.0000
  I   I291      1.0  0.00657  0.16360  0.29419  1.0000
  I   I292      1.0  0.68974  0.13221  0.01717  1.0000
  I   I293      1.0  0.42201  0.77954  0.28812  1.0000
  I   I294      1.0  0.86483  0.91937  0.07847  1.0000
  I   I295      1.0  0.95013  0.49543  0.59818  1.0000
  I   I296      1.0  0.67461  0.25909  0.13497  1.0000
  I   I297      1.0  0.33082  0.09431  0.70298  1.0000
  I   I298      1.0  0.65889  0.25851  0.62543  1.0000
  I   I299      1.0  0.22705  0.46916  0.70597  1.0000
  I   I300      1.0  0.88650  0.72965  0.09875  1.0000
  I   I301      1.0  0.66644  0.80472  0.60161  1.0000
  I   I302      1.0  0.83027  0.20918  0.66769  1.0000
  I   I303      1.0  0.96202  0.50259  0.96617  1.0000
  I   I304      1.0  0.61105  0.71130  0.61775  1.0000
  I   I305      1.0  0.17307  0.55044  0.76127  1.0000
  I   I306      1.0  0.37365  0.27238  0.93638  1.0000
  I   I307      1.0  0.48569  0.63578  0.57730  1.0000
  I   I308      1.0  0.43783  0.19619  0.77212  1.0000
  I   I309      1.0  0.30001  0.57282  0.49567  1.0000
  I   I310      1.0  0.31872  0.99264  0.30000  1.0000
  I   I311      1.0  0.25469  0.15404  0.20094  1.0000
  I   I312      1.0  0.45817  0.42770  0.70810  1.0000
  I   I313      1.0  0.75415  0.24007  0.06152  1.0000
  I   I314      1.0  0.51674  0.00560  0.01095  1.0000
  I   I315      1.0  0.35598  0.78989  0.90280  1.0000
  I   I316      1.0  0.40039  0.89257  0.69582  1.0000
  I   I317      1.0  0.60654  0.77552  0.96234  1.0000
  I   I318      1.0  0.07891  0.75638  0.47429  1.0000
  I   I319      1.0  0.54596  0.68307  0.41478  1.0000
  I   I320      1.0  0.95916  0.40640  0.53902  1.0000
  I   I321      1.0  0.21975  0.10630  0.90905  1.0000
  I   I322      1.0  0.46096  0.30759  0.06839  1.0000
  I   I323      1.0  0.73409  0.56032  0.69101  1.0000
  I   I324      1.0  0.18223  0.18543  0.24064  1.0000
  I   I325      1.0  0.18509  0.19898  0.65496  1.0000
  I   I326      1.0  0.38646  0.30302  0.83172  1.0000
  I   I327      1.0  0.25704  0.32960  0.15481  1.0000
  I   I328      1.0  0.99529  0.45808  0.90191  1.0000
  I   I329      1.0  0.35615  0.32349  0.41258  1.0000
  I   I330      1.0  0.19887  0.92758  0.69810  1.0000
  I   I331      1.0  0.17758  0.38447  0.11191  1.0000
  I   I332      1.0  0.66812  0.31348  0.59026  1.0000
  I   I333      1.0  0.69709  0.88163  0.85831  1.0000
  I   I334      1.0  0.84452  0.07559  0.35571  1.0000
  I   I335      1.0  0.70507  0.48994  0.18196  1.0000
  I   I336      1.0  0.50924  0.56871  0.68061  1.0000
  I   I337      1.0  0.02855  0.95263  0.49867  1.0000
  I   I338      1.0  0.10642  0.31480  0.23926  1.0000
  I   I339      1.0  0.08394  0.11384  0.19494  1.0000
  I   I340      1.0  0.04445  0.38894  0.51737  1.0000
  I   I341      1.0  0.34185  0.66560  0.18508  1.0000
  I   I342      1.0  0.89151  0.87323  0.17418  1.0000
  I   I343      1.0  0.95792  0.58040  0.51645  1.0000
  I   I344      1.0  0.67112  0.32237  0.18394  1.0000
  I   I345      1.0  0.40153  0.02832  0.61095  1.0000
  I   I346      1.0  0.35268  0.93001  0.33459  1.0000
  I   I347      1.0  0.63856  0.25440  0.89895  1.0000
  I   I348      1.0  0.97793  0.64574  0.00018  1.0000
  I   I349      1.0  0.69115  0.85527  0.63145  1.0000
  I   I350      1.0  0.78509  0.21714  0.56537  1.0000
  I   I351      1.0  0.84455  0.07132  0.63615  1.0000
  I   I352      1.0  0.49318  0.75392  0.64644  1.0000
  I   I353      1.0  0.74481  0.96124  0.59674  1.0000
  I   I354      1.0  0.32079  0.32804  0.83435  1.0000
  I   I355      1.0  0.56522  0.55754  0.58199  1.0000
  I   I356      1.0  0.48851  0.66241  0.47728  1.0000
  I   I357      1.0  0.13801  0.85271  0.03481  1.0000
  I   I358      1.0  0.25008  0.71381  0.67723  1.0000
  I   I359      1.0  0.22725  0.22155  0.23825  1.0000
  I   I360      1.0  0.45562  0.48136  0.68435  1.0000
  I   I361      1.0  0.77290  0.20730  0.96485  1.0000
  I   I362      1.0  0.48196  0.06652  0.12702  1.0000
  I   I363      1.0  0.08017  0.91635  0.06607  1.0000
  I   I364      1.0  0.31966  0.94177  0.83636  1.0000
  I   I365      1.0  0.46938  0.85886  0.90979  1.0000
  I   I366      1.0  0.02369  0.81338  0.55349  1.0000
  I   I367      1.0  0.52344  0.73126  0.45151  1.0000
  I   I368      1.0  0.01628  0.35523  0.57280  1.0000
  I   I369      1.0  0.15246  0.09288  0.76642  1.0000
  I   I370      1.0  0.47544  0.34783  0.13847  1.0000
  I   I371      1.0  0.69257  0.58649  0.62131  1.0000
  I   I372      1.0  0.20594  0.16187  0.04770  1.0000
  I   I373      1.0  0.13212  0.18800  0.48384  1.0000
  I   I374      1.0  0.50469  0.48126  0.21158  1.0000
  I   I375      1.0  0.26567  0.38105  0.23521  1.0000
  I   I376      1.0  0.60583  0.10638  0.04374  1.0000
  I   I377      1.0  0.37942  0.34114  0.51573  1.0000
  I   I378      1.0  0.13740  0.90975  0.62560  1.0000
  I   I379      1.0  0.14430  0.60488  0.90990  1.0000
  I   I380      1.0  0.35850  0.63522  0.91648  1.0000
  I   I381      1.0  0.17702  0.70950  0.11150  1.0000
  I   I382      1.0  0.87164  0.00181  0.26437  1.0000
  I   I383      1.0  0.75563  0.38825  0.76168  1.0000
  I   I384      1.0  0.49332  0.45203  0.58966  1.0000
