data_image0
_chemical_formula_structural       Ti96I384
_chemical_formula_sum              "Ti96 I384"
_cell_length_a       75.9758
_cell_length_b       75.8776
_cell_length_c       37.128
_cell_angle_alpha    88.7757
_cell_angle_beta     88.7757
_cell_angle_gamma    62.1586

_space_group_name_H-M_alt    "P 1"
_space_group_IT_number       1

loop_
  _space_group_symop_operation_xyz
  'x, y, z'

loop_
  _atom_site_type_symbol
  _atom_site_label
  _atom_site_symmetry_multiplicity
  _atom_site_fract_x
  _atom_site_fract_y
  _atom_site_fract_z
  _atom_site_occupancy
  Ti  Ti1       1.0  0.71001  0.17148  0.80120  1.0000
  Ti  Ti2       1.0  0.45339  0.76765  0.70150  1.0000
  Ti  Ti3       1.0  0.14091  0.10860  0.41185  1.0000
  Ti  Ti4       1.0  0.19231  0.17617  0.92667  1.0000
  Ti  Ti5       1.0  0.34625  0.04494  0.74472  1.0000
  Ti  Ti6       1.0  0.44183  0.61877  0.13154  1.0000
  Ti  Ti7       1.0  0.82247  0.95166  0.12389  1.0000
  Ti  Ti8       1.0  0.35325  0.82369  0.32537  1.0000
  Ti  Ti9       1.0  0.15719  0.50329  0.70495  1.0000
  Ti  Ti10      1.0  0.46873  0.74147  0.36828  1.0000
  Ti  Ti11      1.0  0.30315  0.82911  0.98617  1.0000
  Ti  Ti12      1.0  0.73128  0.09926  0.02850  1.0000
  Ti  Ti13      1.0  0.78796  0.70764  0.69539  1.0000
  Ti  Ti14      1.0  0.16810  0.20475  0.87613  1.0000
  Ti  Ti15      1.0  0.85554  0.36726  0.97562  1.0000
  Ti  Ti16      1.0  0.22786  0.71770  0.45965  1.0000
  Ti  Ti17      1.0  0.17847  0.74375  0.58451  1.0000
  Ti  Ti18      1.0  0.58476  0.04216  0.65979  1.0000
  Ti  Ti19      1.0  0.82159  0.23295  0.90132  1.0000
  Ti  Ti20      1.0  0.09153  0.64448  0.84206  1.0000
  Ti  Ti21      1.0  0.35735  0.77774  0.31936  1.0000
  Ti  Ti22      1.0  0.61306  0.39400  0.82142  1.0000
  Ti  Ti23      1.0  0.22775  0.59543  0.69095  1.0000
  Ti  Ti24      1.0  0.71246  0.23189  0.58107  1.0000
  Ti  Ti25      1.0  0.72843  0.52716  0.09016  1.0000
  Ti  Ti26      1.0  0.05268  0.77546  0.73874  1.0000
  Ti  Ti27      1.0  0.58675  0.62075  0.04933  1.0000
  Ti  Ti28      1.0  0.57171  0.14416  0.87978  1.0000
  Ti  Ti29      1.0  0.06276  0.08041  0.01216  1.0000
  Ti  Ti30      1.0  0.13131  0.85104  0.29099  1.0000
  Ti  Ti31      1.0  0.73291  0.24072  0.12279  1.0000
  Ti  Ti32      1.0  0.42542  0.74399  0.03052  1.0000
  Ti  Ti33      1.0  0.62155  0.20316  0.84324  1.0000
  Ti  Ti34      1.0  0.83128  0.53464  0.21286  1.0000
  Ti  Ti35      1.0  0.51627  0.85775  0.20157  1.0000
  Ti  Ti36      1.0  0.23119  0.21429  0.44433  1.0000
  Ti  Ti37      1.0  0.04040  0.44401  0.78131  1.0000
  Ti  Ti38      1.0  0.31103  0.44348  0.59232  1.0000
  Ti  Ti39      1.0  0.96456  0.22836  0.65408  1.0000
  Ti  Ti40      1.0  0.49442  0.78350  0.41545  1.0000
  Ti  Ti41      1.0  0.78299  0.57264  0.20591  1.0000
  Ti  Ti42      1.0  0.75034  0.89254  0.43874  1.0000
  Ti  Ti43      1.0  0.02924  0.82928  0.39152  1.0000
  Ti  Ti44      1.0  0.75715  0.30226  0.25442  1.0000
  Ti  Ti45      1.0  0.64508  0.89638  0.21871  1.0000
  Ti  Ti46      1.0  0.85498  0.67150  0.02743  1.0000
  Ti  Ti47      1.0  0.00227  0.91992  0.94526  1.0000
  Ti  Ti48      1.0  0.96882  0.02081  0.55343  1.0000
  Ti  Ti49      1.0  0.06384  0.82793  0.43029  1.0000
  Ti  Ti50      1.0  0.08750  0.32821  0.15702  1.0000
  Ti  Ti51      1.0  0.49821  0.72625  0.63701  1.0000
  Ti  Ti52      1.0  0.45505  0.40856  0.00206  1.0000
  Ti  Ti53      1.0  0.41530  0.72336  0.86520  1.0000
  Ti  Ti54      1.0  0.39737  0.89688  0.93302  1.0000
  Ti  Ti55      1.0  0.47368  0.72364  0.06083  1.0000
  Ti  Ti56      1.0  0.75913  0.81927  0.79169  1.0000
  Ti  Ti57      1.0  0.15820  0.53629  0.65464  1.0000
  Ti  Ti58      1.0  0.37305  0.06393  0.96959  1.0000
  Ti  Ti59      1.0  0.30250  0.70796  0.40358  1.0000
  Ti  Ti60      1.0  0.94806  0.17074  0.05929  1.0000
  Ti  Ti61      1.0  0.68427  0.98296  0.55108  1.0000
  Ti  Ti62      1.0  0.83223  0.67973  0.69296  1.0000
  Ti  Ti63      1.0  0.12856  0.65325  0.81423  1.0000
  Ti  Ti64      1.0  0.55295  0.06744  0.62009  1.0000
  Ti  Ti65      1.0  0.69286  0.09924  0.53812  1.0000
  Ti  Ti66      1.0  0.35486  0.16302  0.12327  1.0000
  Ti  Ti67      1.0  0.33653  0.06772  0.35441  1.0000
  Ti  Ti68      1.0  0.60015  0.19893  0.08859  1.0000
  Ti  Ti69      1.0  0.03126  0.78237  0.65995  1.0000
  Ti  Ti70      1.0  0.27525  0.08941  0.47767  1.0000
  Ti  Ti71      1.0  0.20431  0.73161  0.26981  1.0000
  Ti  Ti72      1.0  0.07544  0.87947  0.94087  1.0000
  Ti  Ti73      1.0  0.57911  0.47062  0.18907  1.0000
  Ti  Ti74      1.0  0.69047  0.55806  0.15304  1.0000
  Ti  Ti75      1.0  0.29423  0.46314  0.13957  1.0000
  Ti  Ti76      1.0  0.39959  0.03542  0.58125  1.0000
  Ti  Ti77      1.0  0.86326  0.38833  0.88388  1.0000
  Ti  Ti78      1.0  0.04129  0.05504  0.01540  1.0000
  Ti  Ti79      1.0  0.37371  0.96287  0.42875  1.0000
  Ti  Ti80      1.0  0.60587  0.89590  0.99308  1.0000
  Ti  Ti81      1.0  0.03511  0.67763  0.25979  1.0000
  Ti  Ti82      1.0  0.72026  0.48307  0.72811  1.0000
  Ti  Ti83      1.0  0.15649  0.31733  0.40891  1.0000
  Ti  Ti84      1.0  0.23375  0.25932  0.49504  1.0000
  Ti  Ti85      1.0  0.08439  0.42650  0.74828  1.0000
  Ti  Ti86      1.0  0.82909  0.90378  0.11053  1.0000
  Ti  Ti87      1.0  0.66641  0.87022  0.28713  1.0000
  Ti  Ti88      1.0  0.20408  0.59749  0.97253  1.0000
  Ti  Ti89      1.0  0.15254  0.49967  0.16368  1.0000
  Ti  Ti90      1.0  0.03605  0.39150  0.11206  1.0000
  Ti  Ti91      1.0  0.88202  0.05788  0.38731  1.0000
  Ti  Ti92      1.0  0.38605  0.44469  0.22903  1.0000
  Ti  Ti93      1.0  0.45469  0.57483  0.58289  1.0000
  Ti  Ti94      1.0  0.00549  0.98438  0.61202  1.0000
  Ti  Ti95      1.0  0.20105  0.27654  0.18791  1.0000
  Ti  Ti96      1.0  0.64918  0.40696  0.79394  1.0000
  I   I1        1.0  0.03806  0.89167  0.97901  1.0000
  I   I2        1.0  0.48974  0.73460  0.71710  1.0000
  I   I3        1.0  0.07074  0.83622  0.49930  1.0000
  I   I4        1.0  0.40168  0.73287  0.80222  1.0000
  I   I5        1.0  0.43458  0.63278  0.19104  1.0000
  I   I6        1.0  0.39946  0.92027  0.88205  1.0000
  I   I7        1.0  0.38346  0.79415  0.35300  1.0000
  I   I8        1.0  0.77919  0.78193  0.76918  1.0000
  I   I9        1.0  0.16208  0.54505  0.71599  1.0000
  I   I10       1.0  0.45998  0.77056  0.41854  1.0000
  I   I11       1.0  0.26842  0.83474  0.00503  1.0000
  I   I12       1.0  0.34648  0.03679  0.67646  1.0000
  I   I13       1.0  0.81981  0.68605  0.76513  1.0000
  I   I14       1.0  0.14695  0.64474  0.75667  1.0000
  I   I15       1.0  0.83998  0.40994  0.93729  1.0000
  I   I16       1.0  0.47723  0.82231  0.42081  1.0000
  I   I17       1.0  0.33038  0.16571  0.17508  1.0000
  I   I18       1.0  0.58600  0.07996  0.66245  1.0000
  I   I19       1.0  0.09056  0.61984  0.88793  1.0000
  I   I20       1.0  0.30690  0.85364  0.03911  1.0000
  I   I21       1.0  0.32103  0.85381  0.29183  1.0000
  I   I22       1.0  0.20770  0.61120  0.63151  1.0000
  I   I23       1.0  0.21002  0.75899  0.22664  1.0000
  I   I24       1.0  0.28715  0.05119  0.46239  1.0000
  I   I25       1.0  0.75023  0.53445  0.05020  1.0000
  I   I26       1.0  0.29085  0.45532  0.07717  1.0000
  I   I27       1.0  0.61690  0.58298  0.04445  1.0000
  I   I28       1.0  0.56774  0.16764  0.82339  1.0000
  I   I29       1.0  0.00885  0.07067  0.98199  1.0000
  I   I30       1.0  0.12344  0.86115  0.22677  1.0000
  I   I31       1.0  0.58729  0.93417  0.97811  1.0000
  I   I32       1.0  0.00697  0.68426  0.31144  1.0000
  I   I33       1.0  0.33719  0.99396  0.44036  1.0000
  I   I34       1.0  0.54899  0.85075  0.22851  1.0000
  I   I35       1.0  0.24816  0.25112  0.56452  1.0000
  I   I36       1.0  0.82799  0.52916  0.14297  1.0000
  I   I37       1.0  0.08331  0.42114  0.67171  1.0000
  I   I38       1.0  0.97829  0.23833  0.59294  1.0000
  I   I39       1.0  0.11775  0.41649  0.78040  1.0000
  I   I40       1.0  0.74546  0.33774  0.23152  1.0000
  I   I41       1.0  0.05414  0.36596  0.16559  1.0000
  I   I42       1.0  0.51765  0.77883  0.35481  1.0000
  I   I43       1.0  0.37788  0.09278  0.99635  1.0000
  I   I44       1.0  0.76964  0.30602  0.32162  1.0000
  I   I45       1.0  0.60697  0.92014  0.20734  1.0000
  I   I46       1.0  0.23770  0.25081  0.17195  1.0000
  I   I47       1.0  0.96322  0.93546  0.95811  1.0000
  I   I48       1.0  0.96741  0.99907  0.63557  1.0000
  I   I49       1.0  0.01189  0.84215  0.46274  1.0000
  I   I50       1.0  0.44427  0.74726  0.75102  1.0000
  I   I51       1.0  0.41824  0.78267  0.68419  1.0000
  I   I52       1.0  0.58971  0.87669  0.96334  1.0000
  I   I53       1.0  0.45067  0.69673  0.88045  1.0000
  I   I54       1.0  0.43204  0.87228  0.95322  1.0000
  I   I55       1.0  0.78891  0.91907  0.11516  1.0000
  I   I56       1.0  0.33052  0.77028  0.29605  1.0000
  I   I57       1.0  0.18089  0.31345  0.19487  1.0000
  I   I58       1.0  0.51248  0.73574  0.40163  1.0000
  I   I59       1.0  0.31158  0.69951  0.32947  1.0000
  I   I60       1.0  0.97476  0.13649  0.06685  1.0000
  I   I61       1.0  0.76511  0.73924  0.64432  1.0000
  I   I62       1.0  0.86429  0.68214  0.70649  1.0000
  I   I63       1.0  0.08975  0.68369  0.80526  1.0000
  I   I64       1.0  0.24226  0.68415  0.49843  1.0000
  I   I65       1.0  0.66328  0.10934  0.57978  1.0000
  I   I66       1.0  0.38571  0.16463  0.14674  1.0000
  I   I67       1.0  0.81284  0.24369  0.96714  1.0000
  I   I68       1.0  0.07034  0.67461  0.88665  1.0000
  I   I69       1.0  0.99232  0.80464  0.65047  1.0000
  I   I70       1.0  0.25663  0.12969  0.46431  1.0000
  I   I71       1.0  0.23036  0.62911  0.70868  1.0000
  I   I72       1.0  0.00622  0.88821  0.91267  1.0000
  I   I73       1.0  0.57305  0.61582  0.99122  1.0000
  I   I74       1.0  0.03939  0.77585  0.80280  1.0000
  I   I75       1.0  0.09350  0.76064  0.74705  1.0000
  I   I76       1.0  0.86540  0.34800  0.89298  1.0000
  I   I77       1.0  0.82380  0.36615  0.97136  1.0000
  I   I78       1.0  0.75163  0.22482  0.06265  1.0000
  I   I79       1.0  0.58506  0.20729  0.85296  1.0000
  I   I80       1.0  0.69001  0.16500  0.85190  1.0000
  I   I81       1.0  0.42352  0.71505  0.99627  1.0000
  I   I82       1.0  0.73374  0.45730  0.67895  1.0000
  I   I83       1.0  0.12617  0.34156  0.36896  1.0000
  I   I84       1.0  0.23611  0.25261  0.42253  1.0000
  I   I85       1.0  0.04478  0.45668  0.84470  1.0000
  I   I86       1.0  0.36450  0.13617  0.07306  1.0000
  I   I87       1.0  0.97014  0.24313  0.71355  1.0000
  I   I88       1.0  0.47207  0.70745  0.39977  1.0000
  I   I89       1.0  0.81925  0.53710  0.27954  1.0000
  I   I90       1.0  0.01499  0.42767  0.13592  1.0000
  I   I91       1.0  0.90391  0.03402  0.43593  1.0000
  I   I92       1.0  0.38045  0.47658  0.27023  1.0000
  I   I93       1.0  0.77869  0.27417  0.21217  1.0000
  I   I94       1.0  0.99669  0.02288  0.59897  1.0000
  I   I95       1.0  0.85757  0.65148  0.09144  1.0000
  I   I96       1.0  0.60873  0.36354  0.78475  1.0000
  I   I97       1.0  0.14370  0.13191  0.46652  1.0000
  I   I98       1.0  0.67726  0.20901  0.79432  1.0000
  I   I99       1.0  0.48103  0.70354  0.62874  1.0000
  I   I100      1.0  0.18391  0.20242  0.98340  1.0000
  I   I101      1.0  0.23635  0.58572  0.01007  1.0000
  I   I102      1.0  0.31535  0.07978  0.76029  1.0000
  I   I103      1.0  0.80218  0.97990  0.07374  1.0000
  I   I104      1.0  0.44615  0.76036  0.08891  1.0000
  I   I105      1.0  0.16227  0.50029  0.62789  1.0000
  I   I106      1.0  0.71225  0.13551  0.00333  1.0000
  I   I107      1.0  0.43308  0.75628  0.33547  1.0000
  I   I108      1.0  0.76535  0.08768  0.05642  1.0000
  I   I109      1.0  0.84358  0.38301  0.03538  1.0000
  I   I110      1.0  0.75864  0.71585  0.74124  1.0000
  I   I111      1.0  0.13483  0.63428  0.87964  1.0000
  I   I112      1.0  0.56453  0.08629  0.57357  1.0000
  I   I113      1.0  0.73313  0.07526  0.54663  1.0000
  I   I114      1.0  0.19880  0.70541  0.59273  1.0000
  I   I115      1.0  0.31882  0.06916  0.29293  1.0000
  I   I116      1.0  0.36352  0.07853  0.35023  1.0000
  I   I117      1.0  0.58613  0.22851  0.04453  1.0000
  I   I118      1.0  0.61200  0.43164  0.82627  1.0000
  I   I119      1.0  0.30142  0.08809  0.38733  1.0000
  I   I120      1.0  0.08784  0.84067  0.92830  1.0000
  I   I121      1.0  0.56815  0.47983  0.25506  1.0000
  I   I122      1.0  0.74869  0.48902  0.07514  1.0000
  I   I123      1.0  0.28710  0.49899  0.15965  1.0000
  I   I124      1.0  0.11879  0.88825  0.31718  1.0000
  I   I125      1.0  0.43452  0.02512  0.56657  1.0000
  I   I126      1.0  0.03015  0.04439  0.08038  1.0000
  I   I127      1.0  0.62183  0.23002  0.79770  1.0000
  I   I128      1.0  0.14280  0.20093  0.92672  1.0000
  I   I129      1.0  0.07063  0.64800  0.26678  1.0000
  I   I130      1.0  0.19568  0.27017  0.50294  1.0000
  I   I131      1.0  0.73098  0.44967  0.76862  1.0000
  I   I132      1.0  0.51815  0.82400  0.18875  1.0000
  I   I133      1.0  0.97326  0.19238  0.67481  1.0000
  I   I134      1.0  0.29184  0.42300  0.60564  1.0000
  I   I135      1.0  0.34562  0.19336  0.07743  1.0000
  I   I136      1.0  0.78559  0.87451  0.46423  1.0000
  I   I137      1.0  0.43619  0.39036  0.97018  1.0000
  I   I138      1.0  0.18583  0.49712  0.18233  1.0000
  I   I139      1.0  0.84794  0.05794  0.38872  1.0000
  I   I140      1.0  0.42128  0.41955  0.21835  1.0000
  I   I141      1.0  0.47128  0.55597  0.63845  1.0000
  I   I142      1.0  0.02389  0.94415  0.60196  1.0000
  I   I143      1.0  0.15696  0.09532  0.34065  1.0000
  I   I144      1.0  0.63265  0.36922  0.88289  1.0000
  I   I145      1.0  0.73723  0.16714  0.84602  1.0000
  I   I146      1.0  0.45032  0.79857  0.73710  1.0000
  I   I147      1.0  0.10455  0.13559  0.39350  1.0000
  I   I148      1.0  0.46255  0.39506  0.06927  1.0000
  I   I149      1.0  0.37233  0.05714  0.76178  1.0000
  I   I150      1.0  0.43138  0.64394  0.07681  1.0000
  I   I151      1.0  0.48191  0.69126  0.02721  1.0000
  I   I152      1.0  0.35813  0.85100  0.37037  1.0000
  I   I153      1.0  0.18815  0.48422  0.75242  1.0000
  I   I154      1.0  0.05492  0.82018  0.33883  1.0000
  I   I155      1.0  0.30685  0.80114  0.93791  1.0000
  I   I156      1.0  0.96124  0.18732  0.01162  1.0000
  I   I157      1.0  0.89659  0.38006  0.84630  1.0000
  I   I158      1.0  0.12397  0.68777  0.85488  1.0000
  I   I159      1.0  0.69363  0.01205  0.54819  1.0000
  I   I160      1.0  0.58154  0.02838  0.59315  1.0000
  I   I161      1.0  0.19833  0.73638  0.51665  1.0000
  I   I162      1.0  0.62211  0.02713  0.64489  1.0000
  I   I163      1.0  0.78473  0.24751  0.87409  1.0000
  I   I164      1.0  0.62830  0.17246  0.04517  1.0000
  I   I165      1.0  0.35681  0.80842  0.26256  1.0000
  I   I166      1.0  0.65749  0.43507  0.81422  1.0000
  I   I167      1.0  0.26543  0.57096  0.69708  1.0000
  I   I168      1.0  0.70062  0.26009  0.52942  1.0000
  I   I169      1.0  0.65395  0.57938  0.12924  1.0000
  I   I170      1.0  0.69131  0.52477  0.15541  1.0000
  I   I171      1.0  0.56114  0.62306  0.09584  1.0000
  I   I172      1.0  0.40308  0.00814  0.63507  1.0000
  I   I173      1.0  0.05915  0.02174  0.97948  1.0000
  I   I174      1.0  0.09405  0.85499  0.28693  1.0000
  I   I175      1.0  0.75785  0.25557  0.14708  1.0000
  I   I176      1.0  0.42124  0.77811  0.99639  1.0000
  I   I177      1.0  0.37261  0.93193  0.46379  1.0000
  I   I178      1.0  0.68558  0.49603  0.75710  1.0000
  I   I179      1.0  0.13712  0.33274  0.46914  1.0000
  I   I180      1.0  0.24834  0.21632  0.50333  1.0000
  I   I181      1.0  0.06770  0.46729  0.75904  1.0000
  I   I182      1.0  0.83447  0.91193  0.18225  1.0000
  I   I183      1.0  0.66600  0.87131  0.35706  1.0000
  I   I184      1.0  0.17120  0.62550  0.99653  1.0000
  I   I185      1.0  0.12852  0.52950  0.12631  1.0000
  I   I186      1.0  0.74440  0.87987  0.37193  1.0000
  I   I187      1.0  0.37007  0.42531  0.26967  1.0000
  I   I188      1.0  0.72376  0.30123  0.26332  1.0000
  I   I189      1.0  0.63968  0.86352  0.24562  1.0000
  I   I190      1.0  0.82291  0.70243  0.04613  1.0000
  I   I191      1.0  0.10735  0.29489  0.11099  1.0000
  I   I192      1.0  0.12638  0.10181  0.47820  1.0000
  I   I193      1.0  0.03651  0.10097  0.07016  1.0000
  I   I194      1.0  0.05849  0.31483  0.15731  1.0000
  I   I195      1.0  0.17151  0.07505  0.43854  1.0000
  I   I196      1.0  0.23173  0.16316  0.90863  1.0000
  I   I197      1.0  0.34372  0.08314  0.92460  1.0000
  I   I198      1.0  0.47709  0.59142  0.13627  1.0000
  I   I199      1.0  0.38287  0.76362  0.03654  1.0000
  I   I200      1.0  0.77213  0.83831  0.74266  1.0000
  I   I201      1.0  0.14963  0.47299  0.72206  1.0000
  I   I202      1.0  0.30899  0.73873  0.39461  1.0000
  I   I203      1.0  0.02003  0.77050  0.73106  1.0000
  I   I204      1.0  0.71330  0.08117  0.05630  1.0000
  I   I205      1.0  0.79153  0.66446  0.68497  1.0000
  I   I206      1.0  0.14102  0.22873  0.83004  1.0000
  I   I207      1.0  0.84160  0.39728  0.82559  1.0000
  I   I208      1.0  0.26216  0.70798  0.42165  1.0000
  I   I209      1.0  0.19362  0.76198  0.62456  1.0000
  I   I210      1.0  0.36897  0.98179  0.35740  1.0000
  I   I211      1.0  0.27897  0.10042  0.54286  1.0000
  I   I212      1.0  0.06360  0.63819  0.81011  1.0000
  I   I213      1.0  0.03262  0.81250  0.72026  1.0000
  I   I214      1.0  0.61878  0.40216  0.74998  1.0000
  I   I215      1.0  0.20490  0.59237  0.74080  1.0000
  I   I216      1.0  0.46934  0.54230  0.53018  1.0000
  I   I217      1.0  0.69257  0.53342  0.05928  1.0000
  I   I218      1.0  0.32379  0.43382  0.17683  1.0000
  I   I219      1.0  0.61449  0.44465  0.16834  1.0000
  I   I220      1.0  0.87931  0.33163  0.99312  1.0000
  I   I221      1.0  0.03260  0.11546  0.97275  1.0000
  I   I222      1.0  0.39121  0.06736  0.61673  1.0000
  I   I223      1.0  0.69803  0.27349  0.10604  1.0000
  I   I224      1.0  0.45718  0.70654  0.09725  1.0000
  I   I225      1.0  0.62520  0.21085  0.91645  1.0000
  I   I226      1.0  0.72176  0.50942  0.67386  1.0000
  I   I227      1.0  0.51763  0.87123  0.13931  1.0000
  I   I228      1.0  0.20169  0.22359  0.39952  1.0000
  I   I229      1.0  0.14596  0.74806  0.60999  1.0000
  I   I230      1.0  0.32889  0.44238  0.65383  1.0000
  I   I231      1.0  0.92615  0.24087  0.65279  1.0000
  I   I232      1.0  0.16133  0.23821  0.90691  1.0000
  I   I233      1.0  0.78391  0.60120  0.23604  1.0000
  I   I234      1.0  0.02803  0.39894  0.04361  1.0000
  I   I235      1.0  0.06001  0.86074  0.39397  1.0000
  I   I236      1.0  0.43667  0.61306  0.59297  1.0000
  I   I237      1.0  0.90994  0.05028  0.33077  1.0000
  I   I238      1.0  0.19726  0.27189  0.26363  1.0000
  I   I239      1.0  0.66732  0.39869  0.73365  1.0000
  I   I240      1.0  0.96186  0.05280  0.51519  1.0000
  I   I241      1.0  0.72916  0.15710  0.74438  1.0000
  I   I242      1.0  0.46185  0.76828  0.62536  1.0000
  I   I243      1.0  0.87633  0.69255  0.01819  1.0000
  I   I244      1.0  0.20229  0.56468  0.98795  1.0000
  I   I245      1.0  0.42102  0.75510  0.87159  1.0000
  I   I246      1.0  0.41696  0.60485  0.12394  1.0000
  I   I247      1.0  0.85366  0.92208  0.08306  1.0000
  I   I248      1.0  0.38186  0.75371  0.27529  1.0000
  I   I249      1.0  0.12131  0.53774  0.69245  1.0000
  I   I250      1.0  0.31825  0.68884  0.46366  1.0000
  I   I251      1.0  0.33333  0.80921  0.03422  1.0000
  I   I252      1.0  0.92566  0.17555  0.11537  1.0000
  I   I253      1.0  0.81221  0.72380  0.69941  1.0000
  I   I254      1.0  0.19304  0.19629  0.81042  1.0000
  I   I255      1.0  0.71457  0.94903  0.57559  1.0000
  I   I256      1.0  0.69858  0.12371  0.49468  1.0000
  I   I257      1.0  0.01696  0.42769  0.79162  1.0000
  I   I258      1.0  0.59593  0.03228  0.72481  1.0000
  I   I259      1.0  0.35770  0.03488  0.38690  1.0000
  I   I260      1.0  0.59459  0.17206  0.12959  1.0000
  I   I261      1.0  0.37003  0.74884  0.37189  1.0000
  I   I262      1.0  0.57741  0.41188  0.84327  1.0000
  I   I263      1.0  0.24360  0.70783  0.29325  1.0000
  I   I264      1.0  0.20910  0.20653  0.49562  1.0000
  I   I265      1.0  0.70917  0.57459  0.11395  1.0000
  I   I266      1.0  0.02370  0.76179  0.61157  1.0000
  I   I267      1.0  0.57030  0.49669  0.13943  1.0000
  I   I268      1.0  0.56697  0.17046  0.93084  1.0000
  I   I269      1.0  0.10120  0.07839  0.01496  1.0000
  I   I270      1.0  0.55751  0.12030  0.89915  1.0000
  I   I271      1.0  0.72003  0.21608  0.13540  1.0000
  I   I272      1.0  0.01624  0.68968  0.20123  1.0000
  I   I273      1.0  0.63606  0.17571  0.79699  1.0000
  I   I274      1.0  0.74689  0.58075  0.23337  1.0000
  I   I275      1.0  0.48628  0.88075  0.24125  1.0000
  I   I276      1.0  0.23809  0.29237  0.50134  1.0000
  I   I277      1.0  0.73596  0.50116  0.77066  1.0000
  I   I278      1.0  0.32415  0.46376  0.55442  1.0000
  I   I279      1.0  0.67932  0.83326  0.30877  1.0000
  I   I280      1.0  0.48237  0.39168  0.95694  1.0000
  I   I281      1.0  0.77571  0.59089  0.14247  1.0000
  I   I282      1.0  0.74704  0.92806  0.42341  1.0000
  I   I283      1.0  0.01350  0.80707  0.39169  1.0000
  I   I284      1.0  0.74045  0.22491  0.62980  1.0000
  I   I285      1.0  0.70355  0.86567  0.27547  1.0000
  I   I286      1.0  0.17931  0.25801  0.17848  1.0000
  I   I287      1.0  0.03948  0.90947  0.90419  1.0000
  I   I288      1.0  0.93369  0.02451  0.54961  1.0000
  I   I289      1.0  0.99782  0.86330  0.37404  1.0000
  I   I290      1.0  0.09840  0.32267  0.22856  1.0000
  I   I291      1.0  0.53405  0.70895  0.66056  1.0000
  I   I292      1.0  0.45111  0.44418  0.99632  1.0000
  I   I293      1.0  0.39032  0.71244  0.89239  1.0000
  I   I294      1.0  0.38416  0.87527  0.89565  1.0000
  I   I295      1.0  0.84267  0.97134  0.13715  1.0000
  I   I296      1.0  0.72121  0.83624  0.78256  1.0000
  I   I297      1.0  0.19508  0.52722  0.64336  1.0000
  I   I298      1.0  0.35814  0.04804  0.01897  1.0000
  I   I299      1.0  0.20412  0.71622  0.41599  1.0000
  I   I300      1.0  0.42437  0.56796  0.60399  1.0000
  I   I301      1.0  0.67809  0.97303  0.48790  1.0000
  I   I302      1.0  0.81660  0.69248  0.62571  1.0000
  I   I303      1.0  0.49359  0.72171  0.31654  1.0000
  I   I304      1.0  0.54365  0.05840  0.69331  1.0000
  I   I305      1.0  0.22306  0.75300  0.43020  1.0000
  I   I306      1.0  0.79602  0.96429  0.17628  1.0000
  I   I307      1.0  0.85761  0.22998  0.90291  1.0000
  I   I308      1.0  0.10992  0.63159  0.77514  1.0000
  I   I309      1.0  0.32748  0.80921  0.36600  1.0000
  I   I310      1.0  0.06662  0.78963  0.43883  1.0000
  I   I311      1.0  0.18311  0.75534  0.31954  1.0000
  I   I312      1.0  0.09956  0.88332  0.89098  1.0000
  I   I313      1.0  0.56250  0.44918  0.16971  1.0000
  I   I314      1.0  0.73609  0.53014  0.16033  1.0000
  I   I315      1.0  0.26306  0.46293  0.16873  1.0000
  I   I316      1.0  0.36501  0.04567  0.53847  1.0000
  I   I317      1.0  0.61054  0.12774  0.89285  1.0000
  I   I318      1.0  0.07543  0.06040  0.95389  1.0000
  I   I319      1.0  0.38234  0.93830  0.37014  1.0000
  I   I320      1.0  0.17523  0.16712  0.86427  1.0000
  I   I321      1.0  0.47255  0.74148  0.99482  1.0000
  I   I322      1.0  0.86026  0.50154  0.24529  1.0000
  I   I323      1.0  0.19159  0.31154  0.41806  1.0000
  I   I324      1.0  0.25686  0.18189  0.41639  1.0000
  I   I325      1.0  0.07612  0.40389  0.79795  1.0000
  I   I326      1.0  0.81648  0.92155  0.04580  1.0000
  I   I327      1.0  0.66633  0.91332  0.20030  1.0000
  I   I328      1.0  0.51551  0.76411  0.46929  1.0000
  I   I329      1.0  0.12522  0.50606  0.21234  1.0000
  I   I330      1.0  0.00781  0.37929  0.11824  1.0000
  I   I331      1.0  0.64611  0.91599  0.28402  1.0000
  I   I332      1.0  0.41383  0.03501  0.96898  1.0000
  I   I333      1.0  0.83394  0.56995  0.21226  1.0000
  I   I334      1.0  0.02550  0.98615  0.66812  1.0000
  I   I335      1.0  0.85479  0.66792  0.95689  1.0000
  I   I336      1.0  0.66572  0.37412  0.83357  1.0000
  I   I337      1.0  0.09843  0.81615  0.40586  1.0000
  I   I338      1.0  0.11323  0.34064  0.14463  1.0000
  I   I339      1.0  0.51455  0.72534  0.57438  1.0000
  I   I340      1.0  0.63594  0.88367  0.94981  1.0000
  I   I341      1.0  0.33847  0.02211  0.78719  1.0000
  I   I342      1.0  0.37917  0.91225  0.98926  1.0000
  I   I343      1.0  0.50790  0.71571  0.09222  1.0000
  I   I344      1.0  0.75665  0.82525  0.85860  1.0000
  I   I345      1.0  0.14071  0.56661  0.60339  1.0000
  I   I346      1.0  0.23839  0.09146  0.49254  1.0000
  I   I347      1.0  0.34569  0.68042  0.39632  1.0000
  I   I348      1.0  0.92383  0.15949  0.02284  1.0000
  I   I349      1.0  0.65925  0.98022  0.59437  1.0000
  I   I350      1.0  0.85823  0.63695  0.69122  1.0000
  I   I351      1.0  0.19881  0.14139  0.95120  1.0000
  I   I352      1.0  0.53129  0.10582  0.64546  1.0000
  I   I353      1.0  0.68313  0.08481  0.47904  1.0000
  I   I354      1.0  0.84432  0.86770  0.08460  1.0000
  I   I355      1.0  0.83652  0.19505  0.90336  1.0000
  I   I356      1.0  0.60973  0.22188  0.12903  1.0000
  I   I357      1.0  0.06914  0.74810  0.67301  1.0000
  I   I358      1.0  0.68277  0.24159  0.62424  1.0000
  I   I359      1.0  0.18897  0.70691  0.26041  1.0000
  I   I360      1.0  0.08640  0.88468  0.00688  1.0000
  I   I361      1.0  0.60414  0.64199  0.01869  1.0000
  I   I362      1.0  0.67462  0.57709  0.21718  1.0000
  I   I363      1.0  0.04818  0.80099  0.63109  1.0000
  I   I364      1.0  0.16991  0.82987  0.27993  1.0000
  I   I365      1.0  0.89377  0.36913  0.94044  1.0000
  I   I366      1.0  0.07463  0.04694  0.06251  1.0000
  I   I367      1.0  0.41311  0.94632  0.43050  1.0000
  I   I368      1.0  0.62013  0.88123  0.05629  1.0000
  I   I369      1.0  0.03942  0.70642  0.30125  1.0000
  I   I370      1.0  0.79358  0.52841  0.20553  1.0000
  I   I371      1.0  0.14527  0.28673  0.39785  1.0000
  I   I372      1.0  0.71444  0.19641  0.58194  1.0000
  I   I373      1.0  0.02780  0.45916  0.72118  1.0000
  I   I374      1.0  0.34665  0.40890  0.56378  1.0000
  I   I375      1.0  0.66066  0.86929  0.16130  1.0000
  I   I376      1.0  0.20477  0.60731  0.90407  1.0000
  I   I377      1.0  0.16423  0.46246  0.15632  1.0000
  I   I378      1.0  0.72008  0.89199  0.47507  1.0000
  I   I379      1.0  0.87079  0.09619  0.39384  1.0000
  I   I380      1.0  0.36434  0.46187  0.17118  1.0000
  I   I381      1.0  0.75210  0.07672  0.97505  1.0000
  I   I382      1.0  0.99819  0.98540  0.53103  1.0000
  I   I383      1.0  0.19104  0.27842  0.11409  1.0000
  I   I384      1.0  0.01183  0.94386  0.98902  1.0000
