data_image0
_chemical_formula_structural       Ti96I384
_chemical_formula_sum              "Ti96 I384"
_cell_length_a       82.3928
_cell_length_b       81.892
_cell_length_c       40.0131
_cell_angle_alpha    88.7757
_cell_angle_beta     88.7757
_cell_angle_gamma    62.1586

_space_group_name_H-M_alt    "P 1"
_space_group_IT_number       1

loop_
  _space_group_symop_operation_xyz
  'x, y, z'

loop_
  _atom_site_type_symbol
  _atom_site_label
  _atom_site_symmetry_multiplicity
  _atom_site_fract_x
  _atom_site_fract_y
  _atom_site_fract_z
  _atom_site_occupancy
  Ti  Ti1       1.0  0.96766  0.07240  0.60423  1.0000
  Ti  Ti2       1.0  0.73721  0.49657  0.68971  1.0000
  Ti  Ti3       1.0  0.06189  0.95341  0.62026  1.0000
  Ti  Ti4       1.0  0.24052  0.81411  0.74962  1.0000
  Ti  Ti5       1.0  0.83492  0.30891  0.57880  1.0000
  Ti  Ti6       1.0  0.15120  0.22524  0.14360  1.0000
  Ti  Ti7       1.0  0.46147  0.67625  0.34406  1.0000
  Ti  Ti8       1.0  0.30000  0.68537  0.39356  1.0000
  Ti  Ti9       1.0  0.21396  0.89803  0.51632  1.0000
  Ti  Ti10      1.0  0.74594  0.13771  0.93316  1.0000
  Ti  Ti11      1.0  0.36965  0.76540  0.55858  1.0000
  Ti  Ti12      1.0  0.42519  0.16075  0.00848  1.0000
  Ti  Ti13      1.0  0.36815  0.54734  0.18670  1.0000
  Ti  Ti14      1.0  0.29492  0.78140  0.71118  1.0000
  Ti  Ti15      1.0  0.35227  0.63293  0.90786  1.0000
  Ti  Ti16      1.0  0.80965  0.96318  0.68838  1.0000
  Ti  Ti17      1.0  0.69665  0.01668  0.45310  1.0000
  Ti  Ti18      1.0  0.14907  0.48714  0.37497  1.0000
  Ti  Ti19      1.0  0.62056  0.94465  0.34676  1.0000
  Ti  Ti20      1.0  0.70191  0.90431  0.64963  1.0000
  Ti  Ti21      1.0  0.19588  0.32502  0.41450  1.0000
  Ti  Ti22      1.0  0.11669  0.48670  0.93325  1.0000
  Ti  Ti23      1.0  0.26294  0.86860  0.24361  1.0000
  Ti  Ti24      1.0  0.08212  0.18086  0.03130  1.0000
  Ti  Ti25      1.0  0.14748  0.04746  0.83432  1.0000
  Ti  Ti26      1.0  0.41839  0.32616  0.75606  1.0000
  Ti  Ti27      1.0  0.24373  0.80230  0.99362  1.0000
  Ti  Ti28      1.0  0.12804  0.36718  0.12069  1.0000
  Ti  Ti29      1.0  0.64093  0.69283  0.54562  1.0000
  Ti  Ti30      1.0  0.70943  0.63193  0.51220  1.0000
  Ti  Ti31      1.0  0.89348  0.04956  0.92676  1.0000
  Ti  Ti32      1.0  0.77925  0.53379  0.08109  1.0000
  Ti  Ti33      1.0  0.03532  0.84631  0.55473  1.0000
  Ti  Ti34      1.0  0.59357  0.62874  0.85677  1.0000
  Ti  Ti35      1.0  0.87063  0.55691  0.10991  1.0000
  Ti  Ti36      1.0  0.65311  0.53172  0.40394  1.0000
  Ti  Ti37      1.0  0.26060  0.06960  0.42316  1.0000
  Ti  Ti38      1.0  0.91505  0.45934  0.62913  1.0000
  Ti  Ti39      1.0  0.78195  0.14674  0.85796  1.0000
  Ti  Ti40      1.0  0.85971  0.07556  0.47959  1.0000
  Ti  Ti41      1.0  0.42391  0.78467  0.76441  1.0000
  Ti  Ti42      1.0  0.01558  0.66368  0.30052  1.0000
  Ti  Ti43      1.0  0.34451  0.76209  0.44806  1.0000
  Ti  Ti44      1.0  0.29450  0.43183  0.18246  1.0000
  Ti  Ti45      1.0  0.70927  0.35497  0.40689  1.0000
  Ti  Ti46      1.0  0.21505  0.42813  0.04823  1.0000
  Ti  Ti47      1.0  0.09492  0.79812  0.43606  1.0000
  Ti  Ti48      1.0  0.05875  0.35619  0.97271  1.0000
  Ti  Ti49      1.0  0.44352  0.63594  0.16748  1.0000
  Ti  Ti50      1.0  0.19016  0.60693  0.59445  1.0000
  Ti  Ti51      1.0  0.27712  0.90120  0.32902  1.0000
  Ti  Ti52      1.0  0.31704  0.18527  0.40913  1.0000
  Ti  Ti53      1.0  0.60603  0.71231  0.02559  1.0000
  Ti  Ti54      1.0  0.19268  0.70814  0.20579  1.0000
  Ti  Ti55      1.0  0.77337  0.69405  0.53070  1.0000
  Ti  Ti56      1.0  0.70043  0.41892  0.54362  1.0000
  Ti  Ti57      1.0  0.23886  0.88112  0.45308  1.0000
  Ti  Ti58      1.0  0.88928  0.70155  0.95313  1.0000
  Ti  Ti59      1.0  0.79255  0.94756  0.76246  1.0000
  Ti  Ti60      1.0  0.44978  0.87695  0.49370  1.0000
  Ti  Ti61      1.0  0.58485  0.16618  0.84964  1.0000
  Ti  Ti62      1.0  0.41267  0.52690  0.25754  1.0000
  Ti  Ti63      1.0  0.21138  0.27577  0.31788  1.0000
  Ti  Ti64      1.0  0.18706  0.45050  0.35707  1.0000
  Ti  Ti65      1.0  0.51322  0.33188  0.01523  1.0000
  Ti  Ti66      1.0  0.96027  0.03730  0.16524  1.0000
  Ti  Ti67      1.0  0.80989  0.81209  0.67595  1.0000
  Ti  Ti68      1.0  0.36962  0.32714  0.21992  1.0000
  Ti  Ti69      1.0  0.44715  0.34166  0.72802  1.0000
  Ti  Ti70      1.0  0.47184  0.82994  0.95863  1.0000
  Ti  Ti71      1.0  0.68595  0.70220  0.88894  1.0000
  Ti  Ti72      1.0  0.23131  0.77114  0.23846  1.0000
  Ti  Ti73      1.0  0.01593  0.16640  0.15767  1.0000
  Ti  Ti74      1.0  0.12588  0.04568  0.92942  1.0000
  Ti  Ti75      1.0  0.40940  0.64942  0.22452  1.0000
  Ti  Ti76      1.0  0.91916  0.55420  0.34044  1.0000
  Ti  Ti77      1.0  0.34018  0.60624  0.91258  1.0000
  Ti  Ti78      1.0  0.73304  0.10774  0.36661  1.0000
  Ti  Ti79      1.0  0.09365  0.73247  0.82804  1.0000
  Ti  Ti80      1.0  0.85868  0.88264  0.49237  1.0000
  Ti  Ti81      1.0  0.69436  0.37995  0.75105  1.0000
  Ti  Ti82      1.0  0.09327  0.10995  0.51470  1.0000
  Ti  Ti83      1.0  0.74674  0.36320  0.47491  1.0000
  Ti  Ti84      1.0  0.64136  0.54383  0.46849  1.0000
  Ti  Ti85      1.0  0.27345  0.04882  0.53173  1.0000
  Ti  Ti86      1.0  0.45490  0.67044  0.50475  1.0000
  Ti  Ti87      1.0  0.02961  0.79741  0.68086  1.0000
  Ti  Ti88      1.0  0.71589  0.93772  0.98576  1.0000
  Ti  Ti89      1.0  0.55941  0.41789  0.91581  1.0000
  Ti  Ti90      1.0  0.66439  0.04883  0.50864  1.0000
  Ti  Ti91      1.0  0.88421  0.42011  0.45334  1.0000
  Ti  Ti92      1.0  0.85059  0.26033  0.40841  1.0000
  Ti  Ti93      1.0  0.10722  0.21731  0.58185  1.0000
  Ti  Ti94      1.0  0.07927  0.32951  0.91743  1.0000
  Ti  Ti95      1.0  0.61166  0.73375  0.75253  1.0000
  Ti  Ti96      1.0  0.62862  0.97323  0.69516  1.0000
  I   I1        1.0  0.09658  0.78644  0.49579  1.0000
  I   I2        1.0  0.26647  0.87388  0.31606  1.0000
  I   I3        1.0  0.37510  0.67980  0.22044  1.0000
  I   I4        1.0  0.58485  0.73514  0.07366  1.0000
  I   I5        1.0  0.14193  0.20045  0.17292  1.0000
  I   I6        1.0  0.15623  0.73904  0.21614  1.0000
  I   I7        1.0  0.33204  0.67759  0.41206  1.0000
  I   I8        1.0  0.67980  0.40257  0.56107  1.0000
  I   I9        1.0  0.22655  0.89025  0.39263  1.0000
  I   I10       1.0  0.91836  0.01705  0.94814  1.0000
  I   I11       1.0  0.36906  0.78705  0.61191  1.0000
  I   I12       1.0  0.80635  0.30542  0.60780  1.0000
  I   I13       1.0  0.35824  0.57838  0.15861  1.0000
  I   I14       1.0  0.23856  0.25240  0.34838  1.0000
  I   I15       1.0  0.33994  0.63072  0.96759  1.0000
  I   I16       1.0  0.86103  0.10382  0.50838  1.0000
  I   I17       1.0  0.81371  0.27425  0.43364  1.0000
  I   I18       1.0  0.17047  0.49005  0.42808  1.0000
  I   I19       1.0  0.22785  0.27398  0.25511  1.0000
  I   I20       1.0  0.40234  0.75827  0.52631  1.0000
  I   I21       1.0  0.28928  0.67708  0.32908  1.0000
  I   I22       1.0  0.67237  0.38878  0.80507  1.0000
  I   I23       1.0  0.75172  0.91947  0.97797  1.0000
  I   I24       1.0  0.48769  0.84983  0.93814  1.0000
  I   I25       1.0  0.13453  0.08057  0.81129  1.0000
  I   I26       1.0  0.45599  0.65180  0.11606  1.0000
  I   I27       1.0  0.89956  0.56163  0.12754  1.0000
  I   I28       1.0  0.14743  0.37887  0.14912  1.0000
  I   I29       1.0  0.71322  0.11123  0.31276  1.0000
  I   I30       1.0  0.67175  0.65435  0.51583  1.0000
  I   I31       1.0  0.87132  0.89487  0.53554  1.0000
  I   I32       1.0  0.72799  0.37168  0.76375  1.0000
  I   I33       1.0  0.12750  0.73192  0.82561  1.0000
  I   I34       1.0  0.89015  0.52044  0.10444  1.0000
  I   I35       1.0  0.64150  0.57576  0.48485  1.0000
  I   I36       1.0  0.62731  0.61258  0.84587  1.0000
  I   I37       1.0  0.31008  0.02106  0.54498  1.0000
  I   I38       1.0  0.71791  0.15021  0.89615  1.0000
  I   I39       1.0  0.27408  0.01748  0.51949  1.0000
  I   I40       1.0  0.27232  0.45892  0.14459  1.0000
  I   I41       1.0  0.17676  0.58245  0.59822  1.0000
  I   I42       1.0  0.84096  0.05757  0.50057  1.0000
  I   I43       1.0  0.91933  0.69248  0.97835  1.0000
  I   I44       1.0  0.67840  0.35200  0.40962  1.0000
  I   I45       1.0  0.76742  0.36922  0.50905  1.0000
  I   I46       1.0  0.61199  0.72093  0.81501  1.0000
  I   I47       1.0  0.06011  0.80831  0.40282  1.0000
  I   I48       1.0  0.05811  0.38434  0.99806  1.0000
  I   I49       1.0  0.41297  0.63421  0.13594  1.0000
  I   I50       1.0  0.75539  0.50994  0.72132  1.0000
  I   I51       1.0  0.30471  0.88178  0.36628  1.0000
  I   I52       1.0  0.84322  0.86208  0.51289  1.0000
  I   I53       1.0  0.61913  0.68081  0.99104  1.0000
  I   I54       1.0  0.20858  0.70916  0.26142  1.0000
  I   I55       1.0  0.44675  0.64928  0.54119  1.0000
  I   I56       1.0  0.21798  0.29711  0.35774  1.0000
  I   I57       1.0  0.62862  0.75461  0.75737  1.0000
  I   I58       1.0  0.80073  0.11532  0.82222  1.0000
  I   I59       1.0  0.80118  0.91493  0.79814  1.0000
  I   I60       1.0  0.45654  0.90306  0.47134  1.0000
  I   I61       1.0  0.43706  0.49047  0.26607  1.0000
  I   I62       1.0  0.38740  0.53091  0.13118  1.0000
  I   I63       1.0  0.68497  0.89520  0.60230  1.0000
  I   I64       1.0  0.84182  0.94136  0.65834  1.0000
  I   I65       1.0  0.84491  0.09413  0.42486  1.0000
  I   I66       1.0  0.10672  0.39726  0.08340  1.0000
  I   I67       1.0  0.60841  0.95436  0.40628  1.0000
  I   I68       1.0  0.73408  0.89857  0.62750  1.0000
  I   I69       1.0  0.38408  0.33964  0.77738  1.0000
  I   I70       1.0  0.45900  0.84192  0.01982  1.0000
  I   I71       1.0  0.29326  0.83754  0.24139  1.0000
  I   I72       1.0  0.25569  0.76736  0.19476  1.0000
  I   I73       1.0  0.26562  0.81202  0.96428  1.0000
  I   I74       1.0  0.47897  0.34475  0.75405  1.0000
  I   I75       1.0  0.46522  0.30673  0.74626  1.0000
  I   I76       1.0  0.30550  0.62722  0.93957  1.0000
  I   I77       1.0  0.37549  0.59181  0.93331  1.0000
  I   I78       1.0  0.88804  0.06034  0.98923  1.0000
  I   I79       1.0  0.03470  0.81594  0.54670  1.0000
  I   I80       1.0  0.96100  0.09178  0.54663  1.0000
  I   I81       1.0  0.79033  0.50506  0.03881  1.0000
  I   I82       1.0  0.10764  0.08708  0.46744  1.0000
  I   I83       1.0  0.72221  0.33742  0.34440  1.0000
  I   I84       1.0  0.61646  0.54913  0.42216  1.0000
  I   I85       1.0  0.27105  0.05707  0.59612  1.0000
  I   I86       1.0  0.10823  0.36893  0.17676  1.0000
  I   I87       1.0  0.78328  0.16320  0.80111  1.0000
  I   I88       1.0  0.74804  0.10596  0.94503  1.0000
  I   I89       1.0  0.57814  0.60681  0.85677  1.0000
  I   I90       1.0  0.21396  0.59115  0.54646  1.0000
  I   I91       1.0  0.89849  0.39297  0.41056  1.0000
  I   I92       1.0  0.86202  0.26408  0.34904  1.0000
  I   I93       1.0  0.30923  0.44718  0.22921  1.0000
  I   I94       1.0  0.04054  0.35877  0.92109  1.0000
  I   I95       1.0  0.24626  0.42366  0.02244  1.0000
  I   I96       1.0  0.08741  0.51474  0.91686  1.0000
  I   I97       1.0  0.09168  0.92815  0.58704  1.0000
  I   I98       1.0  0.00482  0.06347  0.60479  1.0000
  I   I99       1.0  0.76183  0.46429  0.69905  1.0000
  I   I100      1.0  0.32628  0.78104  0.72905  1.0000
  I   I101      1.0  0.69862  0.97004  0.01428  1.0000
  I   I102      1.0  0.82988  0.34044  0.59378  1.0000
  I   I103      1.0  0.42766  0.68503  0.45828  1.0000
  I   I104      1.0  0.74971  0.72018  0.48777  1.0000
  I   I105      1.0  0.39725  0.81979  0.74159  1.0000
  I   I106      1.0  0.44477  0.17207  0.96797  1.0000
  I   I107      1.0  0.74922  0.17000  0.89260  1.0000
  I   I108      1.0  0.42882  0.12875  0.03846  1.0000
  I   I109      1.0  0.32912  0.66218  0.87156  1.0000
  I   I110      1.0  0.39108  0.52090  0.30463  1.0000
  I   I111      1.0  0.69643  0.93985  0.64821  1.0000
  I   I112      1.0  0.15503  0.45264  0.39827  1.0000
  I   I113      1.0  0.48290  0.35885  0.00277  1.0000
  I   I114      1.0  0.69769  0.05032  0.49094  1.0000
  I   I115      1.0  0.83688  0.78751  0.64429  1.0000
  I   I116      1.0  0.79648  0.84652  0.66373  1.0000
  I   I117      1.0  0.36958  0.35777  0.21428  1.0000
  I   I118      1.0  0.59905  0.99068  0.73592  1.0000
  I   I119      1.0  0.78149  0.80547  0.66393  1.0000
  I   I120      1.0  0.12851  0.77675  0.42162  1.0000
  I   I121      1.0  0.00500  0.14196  0.14745  1.0000
  I   I122      1.0  0.18319  0.03544  0.84110  1.0000
  I   I123      1.0  0.44124  0.61605  0.22442  1.0000
  I   I124      1.0  0.71259  0.63234  0.44284  1.0000
  I   I125      1.0  0.94126  0.52297  0.38021  1.0000
  I   I126      1.0  0.71087  0.11554  0.41519  1.0000
  I   I127      1.0  0.01885  0.86969  0.50701  1.0000
  I   I128      1.0  0.30154  0.79681  0.65241  1.0000
  I   I129      1.0  0.26625  0.88487  0.18882  1.0000
  I   I130      1.0  0.68461  0.51086  0.36284  1.0000
  I   I131      1.0  0.07085  0.14234  0.48472  1.0000
  I   I132      1.0  0.85342  0.55691  0.16534  1.0000
  I   I133      1.0  0.76871  0.11991  0.87952  1.0000
  I   I134      1.0  0.94041  0.46799  0.63490  1.0000
  I   I135      1.0  0.94438  0.02982  0.11723  1.0000
  I   I136      1.0  0.00236  0.67865  0.35540  1.0000
  I   I137      1.0  0.30913  0.22021  0.39732  1.0000
  I   I138      1.0  0.52402  0.43973  0.92227  1.0000
  I   I139      1.0  0.91120  0.41871  0.48774  1.0000
  I   I140      1.0  0.94391  0.03093  0.21370  1.0000
  I   I141      1.0  0.11308  0.24344  0.60251  1.0000
  I   I142      1.0  0.08351  0.36398  0.91931  1.0000
  I   I143      1.0  0.06651  0.98219  0.61150  1.0000
  I   I144      1.0  0.10050  0.48210  0.99125  1.0000
  I   I145      1.0  0.94368  0.10058  0.63610  1.0000
  I   I146      1.0  0.74327  0.50684  0.62751  1.0000
  I   I147      1.0  0.04392  0.94837  0.57158  1.0000
  I   I148      1.0  0.30045  0.19645  0.46845  1.0000
  I   I149      1.0  0.82855  0.30786  0.51655  1.0000
  I   I150      1.0  0.13053  0.25259  0.18037  1.0000
  I   I151      1.0  0.77965  0.66145  0.53018  1.0000
  I   I152      1.0  0.28630  0.66470  0.42057  1.0000
  I   I153      1.0  0.22793  0.85830  0.48030  1.0000
  I   I154      1.0  0.34749  0.78818  0.50768  1.0000
  I   I155      1.0  0.39479  0.74074  0.61856  1.0000
  I   I156      1.0  0.45778  0.84852  0.45800  1.0000
  I   I157      1.0  0.35002  0.61305  0.85101  1.0000
  I   I158      1.0  0.19511  0.35568  0.39850  1.0000
  I   I159      1.0  0.60301  0.18375  0.85939  1.0000
  I   I160      1.0  0.20282  0.42440  0.31216  1.0000
  I   I161      1.0  0.67665  0.04962  0.57081  1.0000
  I   I162      1.0  0.21462  0.44682  0.38664  1.0000
  I   I163      1.0  0.60022  0.96232  0.29655  1.0000
  I   I164      1.0  0.23167  0.39233  0.06178  1.0000
  I   I165      1.0  0.16082  0.33632  0.43652  1.0000
  I   I166      1.0  0.62414  0.97308  0.63548  1.0000
  I   I167      1.0  0.69280  0.34580  0.74385  1.0000
  I   I168      1.0  0.11047  0.17234  0.98262  1.0000
  I   I169      1.0  0.14311  0.06414  0.89731  1.0000
  I   I170      1.0  0.12106  0.06800  0.98187  1.0000
  I   I171      1.0  0.23370  0.77570  0.02341  1.0000
  I   I172      1.0  0.90061  0.58281  0.38110  1.0000
  I   I173      1.0  0.64105  0.69032  0.61514  1.0000
  I   I174      1.0  0.72516  0.64183  0.56077  1.0000
  I   I175      1.0  0.89427  0.05408  0.47218  1.0000
  I   I176      1.0  0.79142  0.50834  0.13215  1.0000
  I   I177      1.0  0.06916  0.76680  0.81880  1.0000
  I   I178      1.0  0.06141  0.11776  0.53904  1.0000
  I   I179      1.0  0.70037  0.38538  0.37738  1.0000
  I   I180      1.0  0.23425  0.07919  0.37676  1.0000
  I   I181      1.0  0.42727  0.17486  0.06916  1.0000
  I   I182      1.0  0.47106  0.68821  0.29009  1.0000
  I   I183      1.0  0.06222  0.79480  0.67601  1.0000
  I   I184      1.0  0.68607  0.95036  0.94541  1.0000
  I   I185      1.0  0.57648  0.38243  0.91721  1.0000
  I   I186      1.0  0.99835  0.64702  0.26055  1.0000
  I   I187      1.0  0.87888  0.25803  0.44502  1.0000
  I   I188      1.0  0.27720  0.43495  0.23964  1.0000
  I   I189      1.0  0.02893  0.81765  0.73811  1.0000
  I   I190      1.0  0.18187  0.42936  0.03549  1.0000
  I   I191      1.0  0.72794  0.01097  0.43259  1.0000
  I   I192      1.0  0.02689  0.97427  0.66236  1.0000
  I   I193      1.0  0.76120  0.08305  0.40027  1.0000
  I   I194      1.0  0.70171  0.90110  0.71265  1.0000
  I   I195      1.0  0.08885  0.94132  0.66074  1.0000
  I   I196      1.0  0.24005  0.84444  0.73112  1.0000
  I   I197      1.0  0.88404  0.67191  0.96258  1.0000
  I   I198      1.0  0.18410  0.22174  0.13495  1.0000
  I   I199      1.0  0.78083  0.56324  0.09678  1.0000
  I   I200      1.0  0.70440  0.44235  0.50056  1.0000
  I   I201      1.0  0.19642  0.92260  0.46823  1.0000
  I   I202      1.0  0.77954  0.98107  0.65415  1.0000
  I   I203      1.0  0.43283  0.37055  0.77221  1.0000
  I   I204      1.0  0.39691  0.16935  0.96074  1.0000
  I   I205      1.0  0.34154  0.53954  0.18984  1.0000
  I   I206      1.0  0.27468  0.79018  0.77576  1.0000
  I   I207      1.0  0.38143  0.63341  0.88570  1.0000
  I   I208      1.0  0.83157  0.93127  0.74362  1.0000
  I   I209      1.0  0.63921  0.04562  0.53221  1.0000
  I   I210      1.0  0.07789  0.71320  0.82389  1.0000
  I   I211      1.0  0.48816  0.79461  0.96550  1.0000
  I   I212      1.0  0.18176  0.26963  0.32398  1.0000
  I   I213      1.0  0.42201  0.29333  0.74554  1.0000
  I   I214      1.0  0.14829  0.48886  0.95708  1.0000
  I   I215      1.0  0.25162  0.92500  0.37038  1.0000
  I   I216      1.0  0.13888  0.20166  0.55123  1.0000
  I   I217      1.0  0.09374  0.04419  0.94300  1.0000
  I   I218      1.0  0.41572  0.65268  0.28419  1.0000
  I   I219      1.0  0.03168  0.17314  0.10253  1.0000
  I   I220      1.0  0.33604  0.57922  0.93256  1.0000
  I   I221      1.0  0.61653  0.68022  0.55702  1.0000
  I   I222      1.0  0.94653  0.56476  0.32599  1.0000
  I   I223      1.0  0.86272  0.05067  0.93517  1.0000
  I   I224      1.0  0.74358  0.54766  0.08921  1.0000
  I   I225      1.0  0.01287  0.85959  0.60195  1.0000
  I   I226      1.0  0.30549  0.71684  0.36945  1.0000
  I   I227      1.0  0.86331  0.56839  0.05144  1.0000
  I   I228      1.0  0.64144  0.57020  0.37920  1.0000
  I   I229      1.0  0.89119  0.71527  0.89117  1.0000
  I   I230      1.0  0.88171  0.47260  0.66669  1.0000
  I   I231      1.0  0.79678  0.14413  0.91614  1.0000
  I   I232      1.0  0.29362  0.75056  0.70560  1.0000
  I   I233      1.0  0.41127  0.78018  0.82376  1.0000
  I   I234      1.0  0.66221  0.03894  0.43339  1.0000
  I   I235      1.0  0.34884  0.73859  0.39550  1.0000
  I   I236      1.0  0.06905  0.24668  0.60150  1.0000
  I   I237      1.0  0.71403  0.59804  0.52411  1.0000
  I   I238      1.0  0.62181  0.71300  0.70335  1.0000
  I   I239      1.0  0.64566  0.93792  0.69406  1.0000
  I   I240      1.0  0.09463  0.32654  0.85062  1.0000
  I   I241      1.0  0.95605  0.05037  0.60326  1.0000
  I   I242      1.0  0.70702  0.51176  0.71932  1.0000
  I   I243      1.0  0.34400  0.33825  0.16610  1.0000
  I   I244      1.0  0.70945  0.91590  0.02477  1.0000
  I   I245      1.0  0.62019  0.73744  0.00779  1.0000
  I   I246      1.0  0.13728  0.23034  0.08680  1.0000
  I   I247      1.0  0.42836  0.70363  0.35793  1.0000
  I   I248      1.0  0.18762  0.29466  0.40642  1.0000
  I   I249      1.0  0.27235  0.85500  0.46597  1.0000
  I   I250      1.0  0.75410  0.96742  0.75950  1.0000
  I   I251      1.0  0.37061  0.73725  0.49292  1.0000
  I   I252      1.0  0.63402  0.90690  0.33932  1.0000
  I   I253      1.0  0.43857  0.53033  0.28729  1.0000
  I   I254      1.0  0.23314  0.78414  0.74151  1.0000
  I   I255      1.0  0.59507  0.15469  0.78555  1.0000
  I   I256      1.0  0.54077  0.34234  0.00928  1.0000
  I   I257      1.0  0.27538  0.03500  0.41239  1.0000
  I   I258      1.0  0.11162  0.50452  0.37172  1.0000
  I   I259      1.0  0.81957  0.80640  0.73681  1.0000
  I   I260      1.0  0.20675  0.45252  0.09319  1.0000
  I   I261      1.0  0.22593  0.31388  0.44926  1.0000
  I   I262      1.0  0.13737  0.46386  0.88592  1.0000
  I   I263      1.0  0.67899  0.70031  0.95224  1.0000
  I   I264      1.0  0.65951  0.50750  0.46936  1.0000
  I   I265      1.0  0.13813  0.02901  0.78734  1.0000
  I   I266      1.0  0.45559  0.34849  0.66822  1.0000
  I   I267      1.0  0.04279  0.14605  0.19606  1.0000
  I   I268      1.0  0.96780  0.05999  0.21099  1.0000
  I   I269      1.0  0.73501  0.13964  0.36224  1.0000
  I   I270      1.0  0.15101  0.34163  0.08145  1.0000
  I   I271      1.0  0.90652  0.07196  0.90017  1.0000
  I   I272      1.0  0.67541  0.40376  0.70838  1.0000
  I   I273      1.0  0.06818  0.84303  0.56464  1.0000
  I   I274      1.0  0.44072  0.79989  0.80126  1.0000
  I   I275      1.0  0.25521  0.79177  0.06131  1.0000
  I   I276      1.0  0.63633  0.54183  0.53561  1.0000
  I   I277      1.0  0.12106  0.10898  0.54891  1.0000
  I   I278      1.0  0.91904  0.46206  0.56653  1.0000
  I   I279      1.0  0.32257  0.41204  0.14547  1.0000
  I   I280      1.0  0.30775  0.17594  0.35292  1.0000
  I   I281      1.0  0.42996  0.75880  0.71829  1.0000
  I   I282      1.0  0.04469  0.63159  0.31376  1.0000
  I   I283      1.0  0.34380  0.75519  0.57974  1.0000
  I   I284      1.0  0.09440  0.15380  0.07260  1.0000
  I   I285      1.0  0.99865  0.79794  0.65061  1.0000
  I   I286      1.0  0.57540  0.75140  0.75490  1.0000
  I   I287      1.0  0.24379  0.73784  0.26913  1.0000
  I   I288      1.0  0.09574  0.32872  0.97340  1.0000
  I   I289      1.0  0.32152  0.79604  0.42159  1.0000
  I   I290      1.0  0.70158  0.99139  0.39980  1.0000
  I   I291      1.0  0.29657  0.89818  0.27594  1.0000
  I   I292      1.0  0.35003  0.16883  0.41113  1.0000
  I   I293      1.0  0.58967  0.72829  0.96397  1.0000
  I   I294      1.0  0.18714  0.67979  0.21513  1.0000
  I   I295      1.0  0.45823  0.69393  0.54175  1.0000
  I   I296      1.0  0.69607  0.43718  0.60319  1.0000
  I   I297      1.0  0.18068  0.90129  0.52920  1.0000
  I   I298      1.0  0.86926  0.73164  0.99023  1.0000
  I   I299      1.0  0.80725  0.99215  0.71724  1.0000
  I   I300      1.0  0.11636  0.19418  0.63290  1.0000
  I   I301      1.0  0.55695  0.20048  0.84636  1.0000
  I   I302      1.0  0.39377  0.55595  0.21764  1.0000
  I   I303      1.0  0.51648  0.30536  0.97233  1.0000
  I   I304      1.0  0.15267  0.46049  0.31236  1.0000
  I   I305      1.0  0.79510  0.93284  0.69847  1.0000
  I   I306      1.0  0.47877  0.68634  0.38427  1.0000
  I   I307      1.0  0.27972  0.07928  0.38288  1.0000
  I   I308      1.0  0.16835  0.63987  0.56261  1.0000
  I   I309      1.0  0.27772  0.71802  0.41835  1.0000
  I   I310      1.0  0.44503  0.65930  0.21370  1.0000
  I   I311      1.0  0.66234  0.71014  0.83959  1.0000
  I   I312      1.0  0.09867  0.82704  0.40897  1.0000
  I   I313      1.0  0.99894  0.19230  0.19764  1.0000
  I   I314      1.0  0.15632  0.01462  0.91788  1.0000
  I   I315      1.0  0.39428  0.62719  0.21913  1.0000
  I   I316      1.0  0.91639  0.54390  0.28248  1.0000
  I   I317      1.0  0.98983  0.00846  0.16221  1.0000
  I   I318      1.0  0.61525  0.72390  0.52528  1.0000
  I   I319      1.0  0.10752  0.71895  0.89289  1.0000
  I   I320      1.0  0.25511  0.80442  0.68344  1.0000
  I   I321      1.0  0.75909  0.70424  0.59067  1.0000
  I   I322      1.0  0.57986  0.66192  0.89166  1.0000
  I   I323      1.0  0.75082  0.35890  0.40132  1.0000
  I   I324      1.0  0.68105  0.53274  0.43636  1.0000
  I   I325      1.0  0.28067  0.07310  0.49096  1.0000
  I   I326      1.0  0.46587  0.64188  0.32481  1.0000
  I   I327      1.0  0.76981  0.32596  0.47806  1.0000
  I   I328      1.0  0.73135  0.16132  0.98065  1.0000
  I   I329      1.0  0.57491  0.42213  0.96784  1.0000
  I   I330      1.0  0.65511  0.08395  0.51132  1.0000
  I   I331      1.0  0.03284  0.76766  0.71267  1.0000
  I   I332      1.0  0.69629  0.00261  0.50720  1.0000
  I   I333      1.0  0.58345  0.64945  0.79603  1.0000
  I   I334      1.0  0.06678  0.30580  0.91816  1.0000
  I   I335      1.0  0.39985  0.29952  0.22515  1.0000
  I   I336      1.0  0.65011  0.98773  0.70568  1.0000
  I   I337      1.0  0.46142  0.60899  0.12158  1.0000
  I   I338      1.0  0.21018  0.61272  0.63477  1.0000
  I   I339      1.0  0.23080  0.86839  0.24074  1.0000
  I   I340      1.0  0.82411  0.90950  0.46670  1.0000
  I   I341      1.0  0.07955  0.20581  0.07433  1.0000
  I   I342      1.0  0.21829  0.69436  0.15564  1.0000
  I   I343      1.0  0.79776  0.70710  0.54247  1.0000
  I   I344      1.0  0.73709  0.39979  0.57109  1.0000
  I   I345      1.0  0.24488  0.90119  0.50093  1.0000
  I   I346      1.0  0.44096  0.83519  0.93435  1.0000
  I   I347      1.0  0.79718  0.96368  0.81393  1.0000
  I   I348      1.0  0.46476  0.86084  0.54894  1.0000
  I   I349      1.0  0.58786  0.14817  0.90693  1.0000
  I   I350      1.0  0.39370  0.51268  0.21906  1.0000
  I   I351      1.0  0.22770  0.82371  0.81155  1.0000
  I   I352      1.0  0.17417  0.49198  0.34003  1.0000
  I   I353      1.0  0.52147  0.32185  0.08008  1.0000
  I   I354      1.0  0.48380  0.65399  0.47933  1.0000
  I   I355      1.0  0.64414  0.95676  0.34125  1.0000
  I   I356      1.0  0.34094  0.32369  0.24276  1.0000
  I   I357      1.0  0.42954  0.32014  0.81474  1.0000
  I   I358      1.0  0.86340  0.27711  0.59211  1.0000
  I   I359      1.0  0.71668  0.67310  0.86931  1.0000
  I   I360      1.0  0.23536  0.79256  0.27549  1.0000
  I   I361      1.0  0.21120  0.82076  0.97227  1.0000
  I   I362      1.0  0.11423  0.05038  0.86336  1.0000
  I   I363      1.0  0.40609  0.35815  0.71766  1.0000
  I   I364      1.0  0.86798  0.40346  0.48622  1.0000
  I   I365      1.0  0.60849  0.69288  0.08042  1.0000
  I   I366      1.0  0.66714  0.70049  0.55359  1.0000
  I   I367      1.0  0.11383  0.72952  0.76397  1.0000
  I   I368      1.0  0.87634  0.87554  0.43210  1.0000
  I   I369      1.0  0.24608  0.90737  0.27967  1.0000
  I   I370      1.0  0.22681  0.88456  0.58318  1.0000
  I   I371      1.0  0.71697  0.39756  0.47753  1.0000
  I   I372      1.0  0.06439  0.16923  0.99155  1.0000
  I   I373      1.0  0.24087  0.07096  0.48677  1.0000
  I   I374      1.0  0.91594  0.43212  0.66360  1.0000
  I   I375      1.0  0.71279  0.35756  0.47279  1.0000
  I   I376      1.0  0.68389  0.73600  0.88674  1.0000
  I   I377      1.0  0.57279  0.43362  0.86860  1.0000
  I   I378      1.0  0.01427  0.68982  0.25716  1.0000
  I   I379      1.0  0.85991  0.45477  0.47666  1.0000
  I   I380      1.0  0.85189  0.22918  0.39866  1.0000
  I   I381      1.0  0.41200  0.89607  0.47730  1.0000
  I   I382      1.0  0.05282  0.34131  0.03019  1.0000
  I   I383      1.0  0.32111  0.75643  0.48530  1.0000
  I   I384      1.0  0.20804  0.78448  0.18450  1.0000
