data_image0
_chemical_formula_structural       Ti96I384
_chemical_formula_sum              "Ti96 I384"
_cell_length_a       67.7704
_cell_length_b       67.7464
_cell_length_c       33.1206
_cell_angle_alpha    88.7757
_cell_angle_beta     88.7757
_cell_angle_gamma    62.1586

_space_group_name_H-M_alt    "P 1"
_space_group_IT_number       1

loop_
  _space_group_symop_operation_xyz
  'x, y, z'

loop_
  _atom_site_type_symbol
  _atom_site_label
  _atom_site_symmetry_multiplicity
  _atom_site_fract_x
  _atom_site_fract_y
  _atom_site_fract_z
  _atom_site_occupancy
  Ti  Ti1       1.0  0.10603  0.77780  0.04817  1.0000
  Ti  Ti2       1.0  0.77917  0.99868  0.83842  1.0000
  Ti  Ti3       1.0  0.60204  0.92613  0.19487  1.0000
  Ti  Ti4       1.0  0.80263  0.32301  0.16803  1.0000
  Ti  Ti5       1.0  0.52267  0.80702  0.25926  1.0000
  Ti  Ti6       1.0  0.93254  0.72651  0.96225  1.0000
  Ti  Ti7       1.0  0.83525  0.33446  0.63526  1.0000
  Ti  Ti8       1.0  0.27602  0.94674  0.37294  1.0000
  Ti  Ti9       1.0  0.26101  0.99453  0.01222  1.0000
  Ti  Ti10      1.0  0.95434  0.80672  0.46770  1.0000
  Ti  Ti11      1.0  0.22422  0.15585  0.97588  1.0000
  Ti  Ti12      1.0  0.24376  0.57354  0.67439  1.0000
  Ti  Ti13      1.0  0.07042  0.07023  0.25234  1.0000
  Ti  Ti14      1.0  0.94423  0.07518  0.62847  1.0000
  Ti  Ti15      1.0  0.79172  0.98641  0.61807  1.0000
  Ti  Ti16      1.0  0.88650  0.84127  0.45953  1.0000
  Ti  Ti17      1.0  0.29961  0.04231  0.58960  1.0000
  Ti  Ti18      1.0  0.74689  0.77795  0.88799  1.0000
  Ti  Ti19      1.0  0.57883  0.50637  0.97025  1.0000
  Ti  Ti20      1.0  0.10431  0.12383  0.84089  1.0000
  Ti  Ti21      1.0  0.21691  0.95781  0.33051  1.0000
  Ti  Ti22      1.0  0.73832  0.76201  0.31080  1.0000
  Ti  Ti23      1.0  0.48489  0.05925  0.58061  1.0000
  Ti  Ti24      1.0  0.30231  0.82849  0.98804  1.0000
  Ti  Ti25      1.0  0.54469  0.87525  0.70295  1.0000
  Ti  Ti26      1.0  0.36008  0.76241  0.65994  1.0000
  Ti  Ti27      1.0  0.79251  0.22011  0.64731  1.0000
  Ti  Ti28      1.0  0.75248  0.43434  0.44332  1.0000
  Ti  Ti29      1.0  0.03842  0.85144  0.08934  1.0000
  Ti  Ti30      1.0  0.47063  0.99877  0.86114  1.0000
  Ti  Ti31      1.0  0.16118  0.59347  0.98768  1.0000
  Ti  Ti32      1.0  0.91660  0.30814  0.86804  1.0000
  Ti  Ti33      1.0  0.13915  0.83280  0.45246  1.0000
  Ti  Ti34      1.0  0.34734  0.36171  0.57181  1.0000
  Ti  Ti35      1.0  0.67810  0.62548  0.75719  1.0000
  Ti  Ti36      1.0  0.91750  0.12369  0.97788  1.0000
  Ti  Ti37      1.0  0.23659  0.37577  0.41064  1.0000
  Ti  Ti38      1.0  0.35375  0.39296  0.10112  1.0000
  Ti  Ti39      1.0  0.83456  0.63612  0.24409  1.0000
  Ti  Ti40      1.0  0.28225  0.36730  0.86409  1.0000
  Ti  Ti41      1.0  0.48698  0.54756  0.65311  1.0000
  Ti  Ti42      1.0  0.02012  0.23860  0.38138  1.0000
  Ti  Ti43      1.0  0.42458  0.92869  0.23325  1.0000
  Ti  Ti44      1.0  0.88171  0.52371  0.83915  1.0000
  Ti  Ti45      1.0  0.29005  0.66844  0.57623  1.0000
  Ti  Ti46      1.0  0.68263  0.32450  0.27187  1.0000
  Ti  Ti47      1.0  0.30404  0.55685  0.35168  1.0000
  Ti  Ti48      1.0  0.74295  0.20370  0.18440  1.0000
  Ti  Ti49      1.0  0.92590  0.34273  0.19793  1.0000
  Ti  Ti50      1.0  0.01347  0.30002  0.70120  1.0000
  Ti  Ti51      1.0  0.78814  0.04502  0.86458  1.0000
  Ti  Ti52      1.0  0.83916  0.10128  0.40690  1.0000
  Ti  Ti53      1.0  0.42072  0.70086  0.21135  1.0000
  Ti  Ti54      1.0  0.89707  0.73187  0.02456  1.0000
  Ti  Ti55      1.0  0.85736  0.38082  0.64345  1.0000
  Ti  Ti56      1.0  0.06700  0.42519  0.83046  1.0000
  Ti  Ti57      1.0  0.19877  0.99352  0.00453  1.0000
  Ti  Ti58      1.0  0.60544  0.26968  0.45741  1.0000
  Ti  Ti59      1.0  0.31260  0.31501  0.18868  1.0000
  Ti  Ti60      1.0  0.17794  0.62308  0.66961  1.0000
  Ti  Ti61      1.0  0.77423  0.97138  0.48838  1.0000
  Ti  Ti62      1.0  0.01014  0.10612  0.27506  1.0000
  Ti  Ti63      1.0  0.00020  0.04490  0.68323  1.0000
  Ti  Ti64      1.0  0.72477  0.78431  0.97142  1.0000
  Ti  Ti65      1.0  0.62898  0.93200  0.91241  1.0000
  Ti  Ti66      1.0  0.49970  0.19265  0.02102  1.0000
  Ti  Ti67      1.0  0.62877  0.49608  0.93248  1.0000
  Ti  Ti68      1.0  0.85038  0.48053  0.06868  1.0000
  Ti  Ti69      1.0  0.44272  0.71304  0.84905  1.0000
  Ti  Ti70      1.0  0.49109  0.87816  0.28051  1.0000
  Ti  Ti71      1.0  0.44322  0.06749  0.63633  1.0000
  Ti  Ti72      1.0  0.03588  0.17626  0.01719  1.0000
  Ti  Ti73      1.0  0.82101  0.18114  0.76800  1.0000
  Ti  Ti74      1.0  0.58749  0.86999  0.63279  1.0000
  Ti  Ti75      1.0  0.33125  0.81553  0.61205  1.0000
  Ti  Ti76      1.0  0.52699  0.98801  0.79539  1.0000
  Ti  Ti77      1.0  0.70862  0.51004  0.44114  1.0000
  Ti  Ti78      1.0  0.97682  0.87020  0.07002  1.0000
  Ti  Ti79      1.0  0.77562  0.34099  0.82414  1.0000
  Ti  Ti80      1.0  0.75254  0.39474  0.09699  1.0000
  Ti  Ti81      1.0  0.85462  0.34181  0.93385  1.0000
  Ti  Ti82      1.0  0.27375  0.42750  0.54218  1.0000
  Ti  Ti83      1.0  0.64374  0.67889  0.68331  1.0000
  Ti  Ti84      1.0  0.92007  0.05250  0.97314  1.0000
  Ti  Ti85      1.0  0.22474  0.34039  0.39916  1.0000
  Ti  Ti86      1.0  0.49344  0.24909  0.00129  1.0000
  Ti  Ti87      1.0  0.82960  0.60769  0.17644  1.0000
  Ti  Ti88      1.0  0.48346  0.48583  0.24989  1.0000
  Ti  Ti89      1.0  0.46554  0.60049  0.66901  1.0000
  Ti  Ti90      1.0  0.06269  0.24387  0.36392  1.0000
  Ti  Ti91      1.0  0.32035  0.66861  0.64928  1.0000
  Ti  Ti92      1.0  0.33577  0.51884  0.04617  1.0000
  Ti  Ti93      1.0  0.86832  0.55896  0.78291  1.0000
  Ti  Ti94      1.0  0.71499  0.20795  0.06560  1.0000
  Ti  Ti95      1.0  0.72178  0.34345  0.32062  1.0000
  Ti  Ti96      1.0  0.26763  0.54562  0.32670  1.0000
  I   I1        1.0  0.29897  0.55417  0.26772  1.0000
  I   I2        1.0  0.74784  0.08233  0.84531  1.0000
  I   I3        1.0  0.92848  0.35126  0.27666  1.0000
  I   I4        1.0  0.40475  0.73113  0.26926  1.0000
  I   I5        1.0  0.95855  0.71626  0.03507  1.0000
  I   I6        1.0  0.92305  0.69700  0.08048  1.0000
  I   I7        1.0  0.29745  0.96127  0.31949  1.0000
  I   I8        1.0  0.07048  0.39254  0.87938  1.0000
  I   I9        1.0  0.19276  0.97138  0.94792  1.0000
  I   I10       1.0  0.85384  0.87192  0.41594  1.0000
  I   I11       1.0  0.19840  0.16301  0.91166  1.0000
  I   I12       1.0  0.56421  0.78105  0.26252  1.0000
  I   I13       1.0  0.03686  0.12318  0.26146  1.0000
  I   I14       1.0  0.97216  0.03043  0.63709  1.0000
  I   I15       1.0  0.81990  0.00099  0.61779  1.0000
  I   I16       1.0  0.93059  0.82790  0.53700  1.0000
  I   I17       1.0  0.47442  0.22548  0.07057  1.0000
  I   I18       1.0  0.75511  0.73560  0.88137  1.0000
  I   I19       1.0  0.10774  0.09629  0.78355  1.0000
  I   I20       1.0  0.21415  0.13850  0.04253  1.0000
  I   I21       1.0  0.17562  0.98249  0.36414  1.0000
  I   I22       1.0  0.52902  0.03542  0.61000  1.0000
  I   I23       1.0  0.47839  0.02937  0.66621  1.0000
  I   I24       1.0  0.52326  0.89569  0.28420  1.0000
  I   I25       1.0  0.59798  0.89896  0.59352  1.0000
  I   I26       1.0  0.31002  0.79305  0.65479  1.0000
  I   I27       1.0  0.80362  0.24314  0.58685  1.0000
  I   I28       1.0  0.72706  0.47054  0.39056  1.0000
  I   I29       1.0  0.03792  0.88135  0.13622  1.0000
  I   I30       1.0  0.44066  0.98193  0.88149  1.0000
  I   I31       1.0  0.79340  0.39331  0.09099  1.0000
  I   I32       1.0  0.82669  0.37970  0.97575  1.0000
  I   I33       1.0  0.75528  0.34563  0.89410  1.0000
  I   I34       1.0  0.68745  0.61497  0.83369  1.0000
  I   I35       1.0  0.89043  0.09694  0.95871  1.0000
  I   I36       1.0  0.32932  0.34089  0.62235  1.0000
  I   I37       1.0  0.25177  0.30751  0.35860  1.0000
  I   I38       1.0  0.83596  0.60106  0.09816  1.0000
  I   I39       1.0  0.20696  0.37125  0.34609  1.0000
  I   I40       1.0  0.52024  0.55150  0.62915  1.0000
  I   I41       1.0  0.07081  0.26026  0.30098  1.0000
  I   I42       1.0  0.32038  0.37001  0.85790  1.0000
  I   I43       1.0  0.64733  0.25906  0.47705  1.0000
  I   I44       1.0  0.92168  0.51965  0.84615  1.0000
  I   I45       1.0  0.31331  0.65927  0.49953  1.0000
  I   I46       1.0  0.75498  0.35031  0.34250  1.0000
  I   I47       1.0  0.34497  0.54889  0.33095  1.0000
  I   I48       1.0  0.75210  0.23659  0.19071  1.0000
  I   I49       1.0  0.89246  0.34294  0.16392  1.0000
  I   I50       1.0  0.75684  0.97927  0.86414  1.0000
  I   I51       1.0  0.77084  0.01845  0.91408  1.0000
  I   I52       1.0  0.82879  0.32714  0.10624  1.0000
  I   I53       1.0  0.44237  0.69421  0.14379  1.0000
  I   I54       1.0  0.86422  0.72202  0.05033  1.0000
  I   I55       1.0  0.82567  0.31205  0.59049  1.0000
  I   I56       1.0  0.24593  0.92416  0.36982  1.0000
  I   I57       1.0  0.28589  0.96581  0.07024  1.0000
  I   I58       1.0  0.93422  0.84142  0.41942  1.0000
  I   I59       1.0  0.28463  0.30090  0.22339  1.0000
  I   I60       1.0  0.13840  0.62748  0.64288  1.0000
  I   I61       1.0  0.02097  0.07076  0.22330  1.0000
  I   I62       1.0  0.08561  0.02757  0.24927  1.0000
  I   I63       1.0  0.91433  0.11585  0.61200  1.0000
  I   I64       1.0  0.91835  0.79485  0.47910  1.0000
  I   I65       1.0  0.61764  0.94687  0.83778  1.0000
  I   I66       1.0  0.53216  0.15565  0.04435  1.0000
  I   I67       1.0  0.60655  0.52869  0.98352  1.0000
  I   I68       1.0  0.12040  0.08453  0.88657  1.0000
  I   I69       1.0  0.45984  0.69546  0.91651  1.0000
  I   I70       1.0  0.47124  0.92020  0.20632  1.0000
  I   I71       1.0  0.45894  0.09576  0.63393  1.0000
  I   I72       1.0  0.06137  0.15099  0.95889  1.0000
  I   I73       1.0  0.82360  0.21700  0.69866  1.0000
  I   I74       1.0  0.36476  0.72637  0.62442  1.0000
  I   I75       1.0  0.36784  0.80025  0.57494  1.0000
  I   I76       1.0  0.75265  0.40314  0.49141  1.0000
  I   I77       1.0  0.66891  0.51523  0.42784  1.0000
  I   I78       1.0  0.00032  0.89326  0.05378  1.0000
  I   I79       1.0  0.15981  0.79727  0.40527  1.0000
  I   I80       1.0  0.15949  0.58225  0.06117  1.0000
  I   I81       1.0  0.92854  0.33682  0.85048  1.0000
  I   I82       1.0  0.23901  0.44566  0.58996  1.0000
  I   I83       1.0  0.64591  0.66763  0.76195  1.0000
  I   I84       1.0  0.94652  0.07255  0.98381  1.0000
  I   I85       1.0  0.26254  0.33521  0.45731  1.0000
  I   I86       1.0  0.44972  0.27179  0.02155  1.0000
  I   I87       1.0  0.81593  0.67850  0.25671  1.0000
  I   I88       1.0  0.26351  0.40219  0.91920  1.0000
  I   I89       1.0  0.42353  0.63069  0.69364  1.0000
  I   I90       1.0  0.10277  0.21925  0.38619  1.0000
  I   I91       1.0  0.35000  0.63531  0.61366  1.0000
  I   I92       1.0  0.36276  0.53622  0.04064  1.0000
  I   I93       1.0  0.87127  0.55681  0.88862  1.0000
  I   I94       1.0  0.70342  0.19904  0.14391  1.0000
  I   I95       1.0  0.63970  0.33948  0.27197  1.0000
  I   I96       1.0  0.28413  0.50853  0.28538  1.0000
  I   I97       1.0  0.62317  0.94069  0.24036  1.0000
  I   I98       1.0  0.13214  0.73913  0.09406  1.0000
  I   I99       1.0  0.74387  0.03351  0.80974  1.0000
  I   I100      1.0  0.81975  0.27983  0.17829  1.0000
  I   I101      1.0  0.82040  0.07419  0.41649  1.0000
  I   I102      1.0  0.52111  0.79272  0.33490  1.0000
  I   I103      1.0  0.84447  0.42237  0.61815  1.0000
  I   I104      1.0  0.87733  0.30437  0.66195  1.0000
  I   I105      1.0  0.23186  0.98966  0.06275  1.0000
  I   I106      1.0  0.28166  0.57470  0.69059  1.0000
  I   I107      1.0  0.98900  0.81152  0.47946  1.0000
  I   I108      1.0  0.23653  0.55703  0.73842  1.0000
  I   I109      1.0  0.81036  0.94980  0.66274  1.0000
  I   I110      1.0  0.04389  0.07183  0.32117  1.0000
  I   I111      1.0  0.04274  0.03051  0.65668  1.0000
  I   I112      1.0  0.68751  0.78473  0.92817  1.0000
  I   I113      1.0  0.58664  0.94549  0.93780  1.0000
  I   I114      1.0  0.25854  0.06034  0.60489  1.0000
  I   I115      1.0  0.66872  0.49820  0.91719  1.0000
  I   I116      1.0  0.60800  0.46601  0.98646  1.0000
  I   I117      1.0  0.81814  0.47295  0.05487  1.0000
  I   I118      1.0  0.74003  0.72415  0.29138  1.0000
  I   I119      1.0  0.50832  0.84804  0.21173  1.0000
  I   I120      1.0  0.03113  0.15076  0.07201  1.0000
  I   I121      1.0  0.83155  0.19265  0.83133  1.0000
  I   I122      1.0  0.53681  0.90704  0.75337  1.0000
  I   I123      1.0  0.36106  0.80234  0.67699  1.0000
  I   I124      1.0  0.50818  0.00736  0.87625  1.0000
  I   I125      1.0  0.79673  0.42193  0.45012  1.0000
  I   I126      1.0  0.95402  0.85279  0.01924  1.0000
  I   I127      1.0  0.15758  0.84510  0.51022  1.0000
  I   I128      1.0  0.76070  0.35212  0.12689  1.0000
  I   I129      1.0  0.90048  0.32982  0.94418  1.0000
  I   I130      1.0  0.91870  0.14074  0.90167  1.0000
  I   I131      1.0  0.30889  0.40452  0.60143  1.0000
  I   I132      1.0  0.65687  0.63204  0.68335  1.0000
  I   I133      1.0  0.81828  0.62003  0.30413  1.0000
  I   I134      1.0  0.34252  0.36274  0.08067  1.0000
  I   I135      1.0  0.50576  0.27851  0.01984  1.0000
  I   I136      1.0  0.99605  0.21957  0.37549  1.0000
  I   I137      1.0  0.45922  0.51121  0.31165  1.0000
  I   I138      1.0  0.48508  0.53202  0.58440  1.0000
  I   I139      1.0  0.27581  0.66873  0.65967  1.0000
  I   I140      1.0  0.33920  0.48714  0.99522  1.0000
  I   I141      1.0  0.90011  0.56860  0.78788  1.0000
  I   I142      1.0  0.73398  0.22152  0.00490  1.0000
  I   I143      1.0  0.69106  0.38683  0.30199  1.0000
  I   I144      1.0  0.23254  0.55829  0.27782  1.0000
  I   I145      1.0  0.13407  0.77398  0.99564  1.0000
  I   I146      1.0  0.79013  0.96613  0.78546  1.0000
  I   I147      1.0  0.58079  0.95109  0.13642  1.0000
  I   I148      1.0  0.87350  0.08539  0.36106  1.0000
  I   I149      1.0  0.49145  0.80068  0.22351  1.0000
  I   I150      1.0  0.94682  0.75665  0.96354  1.0000
  I   I151      1.0  0.89739  0.36861  0.62747  1.0000
  I   I152      1.0  0.31370  0.91377  0.38505  1.0000
  I   I153      1.0  0.18614  0.97353  0.06143  1.0000
  I   I154      1.0  0.41296  0.95833  0.29700  1.0000
  I   I155      1.0  0.26245  0.12595  0.95084  1.0000
  I   I156      1.0  0.17638  0.65827  0.63389  1.0000
  I   I157      1.0  0.76507  0.01160  0.67431  1.0000
  I   I158      1.0  0.00880  0.06181  0.75023  1.0000
  I   I159      1.0  0.73655  0.97759  0.46621  1.0000
  I   I160      1.0  0.72215  0.80104  0.82286  1.0000
  I   I161      1.0  0.32795  0.01750  0.64445  1.0000
  I   I162      1.0  0.77172  0.76559  0.96531  1.0000
  I   I163      1.0  0.54882  0.49549  0.95661  1.0000
  I   I164      1.0  0.88464  0.45424  0.02379  1.0000
  I   I165      1.0  0.19741  0.98005  0.26306  1.0000
  I   I166      1.0  0.74330  0.76020  0.38599  1.0000
  I   I167      1.0  0.43834  0.07770  0.54784  1.0000
  I   I168      1.0  0.29226  0.84881  0.05240  1.0000
  I   I169      1.0  0.55934  0.85599  0.60066  1.0000
  I   I170      1.0  0.54349  0.91003  0.64941  1.0000
  I   I171      1.0  0.75486  0.25550  0.65636  1.0000
  I   I172      1.0  0.55223  0.00898  0.80024  1.0000
  I   I173      1.0  0.06522  0.80969  0.09997  1.0000
  I   I174      1.0  0.43576  0.02794  0.82092  1.0000
  I   I175      1.0  0.20528  0.57411  0.96970  1.0000
  I   I176      1.0  0.89890  0.30561  0.80400  1.0000
  I   I177      1.0  0.81869  0.32405  0.83042  1.0000
  I   I178      1.0  0.27937  0.46157  0.55294  1.0000
  I   I179      1.0  0.60050  0.68841  0.67838  1.0000
  I   I180      1.0  0.93487  0.01219  0.02072  1.0000
  I   I181      1.0  0.19807  0.32196  0.39276  1.0000
  I   I182      1.0  0.48414  0.26252  0.93090  1.0000
  I   I183      1.0  0.82307  0.56864  0.18687  1.0000
  I   I184      1.0  0.45634  0.50719  0.19206  1.0000
  I   I185      1.0  0.48347  0.51262  0.69452  1.0000
  I   I186      1.0  0.06303  0.20582  0.33331  1.0000
  I   I187      1.0  0.34245  0.49511  0.10976  1.0000
  I   I188      1.0  0.87824  0.49008  0.87715  1.0000
  I   I189      1.0  0.28771  0.70762  0.59875  1.0000
  I   I190      1.0  0.68752  0.31480  0.19719  1.0000
  I   I191      1.0  0.03399  0.29426  0.62546  1.0000
  I   I192      1.0  0.71828  0.20996  0.25036  1.0000
  I   I193      1.0  0.12027  0.80350  0.09093  1.0000
  I   I194      1.0  0.01310  0.26468  0.71767  1.0000
  I   I195      1.0  0.57537  0.92336  0.25573  1.0000
  I   I196      1.0  0.77421  0.34006  0.23445  1.0000
  I   I197      1.0  0.61083  0.24988  0.39279  1.0000
  I   I198      1.0  0.94595  0.72017  0.89099  1.0000
  I   I199      1.0  0.86261  0.34521  0.57726  1.0000
  I   I200      1.0  0.02409  0.45108  0.80055  1.0000
  I   I201      1.0  0.25288  0.03084  0.05806  1.0000
  I   I202      1.0  0.35229  0.28979  0.22636  1.0000
  I   I203      1.0  0.41603  0.69950  0.82196  1.0000
  I   I204      1.0  0.22262  0.62241  0.69280  1.0000
  I   I205      1.0  0.10434  0.07375  0.27488  1.0000
  I   I206      1.0  0.01946  0.00389  0.71437  1.0000
  I   I207      1.0  0.75396  0.00633  0.55276  1.0000
  I   I208      1.0  0.86281  0.84095  0.51690  1.0000
  I   I209      1.0  0.31438  0.06576  0.53560  1.0000
  I   I210      1.0  0.78396  0.76640  0.84873  1.0000
  I   I211      1.0  0.66310  0.46955  0.98393  1.0000
  I   I212      1.0  0.06711  0.16126  0.83058  1.0000
  I   I213      1.0  0.41811  0.75514  0.85744  1.0000
  I   I214      1.0  0.77083  0.75887  0.26672  1.0000
  I   I215      1.0  0.42772  0.08350  0.70714  1.0000
  I   I216      1.0  0.26694  0.83875  0.94416  1.0000
  I   I217      1.0  0.55750  0.83650  0.73212  1.0000
  I   I218      1.0  0.31113  0.86069  0.62086  1.0000
  I   I219      1.0  0.81553  0.17356  0.63687  1.0000
  I   I220      1.0  0.73456  0.47252  0.50241  1.0000
  I   I221      1.0  0.06968  0.85401  0.04376  1.0000
  I   I222      1.0  0.49564  0.96963  0.80826  1.0000
  I   I223      1.0  0.14827  0.56629  0.95280  1.0000
  I   I224      1.0  0.95140  0.27112  0.88544  1.0000
  I   I225      1.0  0.12480  0.85551  0.38343  1.0000
  I   I226      1.0  0.27463  0.42348  0.46360  1.0000
  I   I227      1.0  0.64046  0.68641  0.59928  1.0000
  I   I228      1.0  0.87920  0.15910  0.00115  1.0000
  I   I229      1.0  0.20879  0.41646  0.42445  1.0000
  I   I230      1.0  0.32176  0.43440  0.11334  1.0000
  I   I231      1.0  0.79364  0.65061  0.20875  1.0000
  I   I232      1.0  0.92806  0.07746  0.70798  1.0000
  I   I233      1.0  0.44253  0.57358  0.65230  1.0000
  I   I234      1.0  0.04953  0.28159  0.41248  1.0000
  I   I235      1.0  0.42402  0.93010  0.15265  1.0000
  I   I236      1.0  0.89720  0.51065  0.75636  1.0000
  I   I237      1.0  0.33743  0.69539  0.67196  1.0000
  I   I238      1.0  0.72123  0.33248  0.24019  1.0000
  I   I239      1.0  0.25207  0.52948  0.38937  1.0000
  I   I240      1.0  0.77448  0.16644  0.22017  1.0000
  I   I241      1.0  0.93538  0.36785  0.14886  1.0000
  I   I242      1.0  0.81063  0.06718  0.84156  1.0000
  I   I243      1.0  0.61350  0.88674  0.16667  1.0000
  I   I244      1.0  0.85228  0.11322  0.47000  1.0000
  I   I245      1.0  0.45053  0.66576  0.25447  1.0000
  I   I246      1.0  0.88796  0.74863  0.94315  1.0000
  I   I247      1.0  0.86107  0.38436  0.72291  1.0000
  I   I248      1.0  0.27251  0.96961  0.43417  1.0000
  I   I249      1.0  0.22384  0.00855  0.95601  1.0000
  I   I250      1.0  0.33049  0.29429  0.12194  1.0000
  I   I251      1.0  0.21742  0.19744  0.99060  1.0000
  I   I252      1.0  0.20224  0.58250  0.63125  1.0000
  I   I253      1.0  0.98168  0.13376  0.22234  1.0000
  I   I254      1.0  0.97755  0.08837  0.63639  1.0000
  I   I255      1.0  0.79431  0.99229  0.45849  1.0000
  I   I256      1.0  0.66668  0.93474  0.88929  1.0000
  I   I257      1.0  0.31218  0.00316  0.56249  1.0000
  I   I258      1.0  0.70103  0.81510  0.02376  1.0000
  I   I259      1.0  0.63997  0.47202  0.86089  1.0000
  I   I260      1.0  0.85835  0.47873  0.14432  1.0000
  I   I261      1.0  0.25528  0.94174  0.28265  1.0000
  I   I262      1.0  0.70578  0.79610  0.27898  1.0000
  I   I263      1.0  0.40794  0.05882  0.62323  1.0000
  I   I264      1.0  0.31342  0.78758  0.00801  1.0000
  I   I265      1.0  0.50434  0.88227  0.69984  1.0000
  I   I266      1.0  0.40197  0.75457  0.65758  1.0000
  I   I267      1.0  0.84760  0.14334  0.73556  1.0000
  I   I268      1.0  0.70080  0.53823  0.49783  1.0000
  I   I269      1.0  0.94746  0.90253  0.11482  1.0000
  I   I270      1.0  0.53837  0.98097  0.71945  1.0000
  I   I271      1.0  0.12700  0.63005  0.96537  1.0000
  I   I272      1.0  0.83839  0.36921  0.87367  1.0000
  I   I273      1.0  0.12161  0.81810  0.51034  1.0000
  I   I274      1.0  0.32827  0.35489  0.50397  1.0000
  I   I275      1.0  0.67922  0.58426  0.76215  1.0000
  I   I276      1.0  0.93817  0.03111  0.91226  1.0000
  I   I277      1.0  0.25152  0.40028  0.53478  1.0000
  I   I278      1.0  0.37150  0.39183  0.17027  1.0000
  I   I279      1.0  0.86834  0.63805  0.28145  1.0000
  I   I280      1.0  0.51894  0.49006  0.24687  1.0000
  I   I281      1.0  0.47414  0.60239  0.59105  1.0000
  I   I282      1.0  0.99284  0.26390  0.43802  1.0000
  I   I283      1.0  0.39381  0.91799  0.25360  1.0000
  I   I284      1.0  0.84383  0.56540  0.71443  1.0000
  I   I285      1.0  0.24939  0.67725  0.55690  1.0000
  I   I286      1.0  0.68697  0.28618  0.29458  1.0000
  I   I287      1.0  0.31261  0.51098  0.36204  1.0000
  I   I288      1.0  0.75902  0.18497  0.10116  1.0000
  I   I289      1.0  0.95386  0.30710  0.16601  1.0000
  I   I290      1.0  0.04457  0.30229  0.74618  1.0000
  I   I291      1.0  0.77370  0.06738  0.94363  1.0000
  I   I292      1.0  0.80527  0.13807  0.39086  1.0000
  I   I293      1.0  0.39256  0.68480  0.21743  1.0000
  I   I294      1.0  0.90058  0.76585  0.05877  1.0000
  I   I295      1.0  0.81137  0.32932  0.69519  1.0000
  I   I296      1.0  0.08430  0.44604  0.87177  1.0000
  I   I297      1.0  0.16542  0.03091  0.03790  1.0000
  I   I298      1.0  0.58571  0.31347  0.44983  1.0000
  I   I299      1.0  0.98486  0.76959  0.42191  1.0000
  I   I300      1.0  0.16557  0.60724  0.73855  1.0000
  I   I301      1.0  0.79271  0.92866  0.46694  1.0000
  I   I302      1.0  0.06040  0.08632  0.18389  1.0000
  I   I303      1.0  0.24905  0.38887  0.81343  1.0000
  I   I304      1.0  0.72451  0.82213  0.92283  1.0000
  I   I305      1.0  0.88375  0.81644  0.39409  1.0000
  I   I306      1.0  0.50374  0.20285  0.93944  1.0000
  I   I307      1.0  0.56765  0.51330  0.04571  1.0000
  I   I308      1.0  0.13008  0.14295  0.83391  1.0000
  I   I309      1.0  0.22853  0.98899  0.35927  1.0000
  I   I310      1.0  0.47576  0.88474  0.35824  1.0000
  I   I311      1.0  0.49319  0.08586  0.53077  1.0000
  I   I312      1.0  0.04576  0.20803  0.04161  1.0000
  I   I313      1.0  0.77527  0.20488  0.71298  1.0000
  I   I314      1.0  0.59377  0.86498  0.71054  1.0000
  I   I315      1.0  0.30600  0.82020  0.54388  1.0000
  I   I316      1.0  0.55975  0.95429  0.82929  1.0000
  I   I317      1.0  0.75043  0.41198  0.38005  1.0000
  I   I318      1.0  0.01480  0.82847  0.04272  1.0000
  I   I319      1.0  0.77304  0.30173  0.82165  1.0000
  I   I320      1.0  0.73420  0.39716  0.02960  1.0000
  I   I321      1.0  0.88143  0.29477  0.90596  1.0000
  I   I322      1.0  0.36735  0.37140  0.63696  1.0000
  I   I323      1.0  0.71894  0.61194  0.71678  1.0000
  I   I324      1.0  0.94493  0.12585  0.02864  1.0000
  I   I325      1.0  0.20317  0.36949  0.46974  1.0000
  I   I326      1.0  0.53123  0.21062  0.03044  1.0000
  I   I327      1.0  0.83932  0.64114  0.15342  1.0000
  I   I328      1.0  0.30637  0.32558  0.83838  1.0000
  I   I329      1.0  0.48328  0.56875  0.72657  1.0000
  I   I330      1.0  0.01293  0.26607  0.31698  1.0000
  I   I331      1.0  0.30018  0.62688  0.58679  1.0000
  I   I332      1.0  0.59179  0.25129  0.51272  1.0000
  I   I333      1.0  0.83324  0.54978  0.81055  1.0000
  I   I334      1.0  0.69887  0.18288  0.04155  1.0000
  I   I335      1.0  0.67396  0.34547  0.35076  1.0000
  I   I336      1.0  0.25890  0.58896  0.35784  1.0000
  I   I337      1.0  0.08018  0.76762  0.00426  1.0000
  I   I338      1.0  0.97569  0.33428  0.67806  1.0000
  I   I339      1.0  0.80916  0.01652  0.80572  1.0000
  I   I340      1.0  0.82497  0.34247  0.19435  1.0000
  I   I341      1.0  0.53382  0.83964  0.30208  1.0000
  I   I342      1.0  0.91676  0.69245  0.96812  1.0000
  I   I343      1.0  0.81816  0.37728  0.66031  1.0000
  I   I344      1.0  0.10061  0.40835  0.77668  1.0000
  I   I345      1.0  0.29410  0.97930  0.96085  1.0000
  I   I346      1.0  0.45315  0.88268  0.25979  1.0000
  I   I347      1.0  0.29444  0.35815  0.18356  1.0000
  I   I348      1.0  0.25425  0.53590  0.63790  1.0000
  I   I349      1.0  0.80257  0.95424  0.55394  1.0000
  I   I350      1.0  0.98213  0.12587  0.33698  1.0000
  I   I351      1.0  0.94344  0.06662  0.55124  1.0000
  I   I352      1.0  0.72214  0.75186  0.01111  1.0000
  I   I353      1.0  0.63967  0.88969  0.90618  1.0000
  I   I354      1.0  0.47904  0.16905  0.00932  1.0000
  I   I355      1.0  0.58803  0.51767  0.88758  1.0000
  I   I356      1.0  0.84238  0.52088  0.06203  1.0000
  I   I357      1.0  0.47334  0.71131  0.79756  1.0000
  I   I358      1.0  0.33524  0.83055  0.94631  1.0000
  I   I359      1.0  0.48878  0.03149  0.51334  1.0000
  I   I360      1.0  0.99966  0.18937  0.98005  1.0000
  I   I361      1.0  0.79469  0.16514  0.80122  1.0000
  I   I362      1.0  0.62715  0.83711  0.61529  1.0000
  I   I363      1.0  0.34611  0.75581  0.73848  1.0000
  I   I364      1.0  0.45885  0.02489  0.92930  1.0000
  I   I365      1.0  0.72218  0.52820  0.39030  1.0000
  I   I366      1.0  0.99835  0.84448  0.12887  1.0000
  I   I367      1.0  0.76014  0.35988  0.75870  1.0000
  I   I368      1.0  0.72942  0.43038  0.13462  1.0000
  I   I369      1.0  0.82191  0.33256  0.96996  1.0000
  I   I370      1.0  0.38365  0.32865  0.54879  1.0000
  I   I371      1.0  0.64782  0.71509  0.71018  1.0000
  I   I372      1.0  0.88503  0.05019  0.99892  1.0000
  I   I373      1.0  0.26963  0.36097  0.36001  1.0000
  I   I374      1.0  0.38555  0.38642  0.05315  1.0000
  I   I375      1.0  0.86759  0.59010  0.21728  1.0000
  I   I376      1.0  0.49087  0.44599  0.23553  1.0000
  I   I377      1.0  0.49022  0.61505  0.69933  1.0000
  I   I378      1.0  0.05699  0.21710  0.42876  1.0000
  I   I379      1.0  0.31928  0.65150  0.71791  1.0000
  I   I380      1.0  0.29371  0.55281  0.04095  1.0000
  I   I381      1.0  0.83125  0.60154  0.79601  1.0000
  I   I382      1.0  0.68643  0.24949  0.08308  1.0000
  I   I383      1.0  0.73483  0.30834  0.37126  1.0000
  I   I384      1.0  0.31710  0.56551  0.42196  1.0000
