data_image0
_chemical_formula_structural       Ti96I384
_chemical_formula_sum              "Ti96 I384"
_cell_length_a       65.0969
_cell_length_b       64.8745
_cell_length_c       31.6186
_cell_angle_alpha    88.7757
_cell_angle_beta     88.7757
_cell_angle_gamma    62.1586

_space_group_name_H-M_alt    "P 1"
_space_group_IT_number       1

loop_
  _space_group_symop_operation_xyz
  'x, y, z'

loop_
  _atom_site_type_symbol
  _atom_site_label
  _atom_site_symmetry_multiplicity
  _atom_site_fract_x
  _atom_site_fract_y
  _atom_site_fract_z
  _atom_site_occupancy
  Ti  Ti1       1.0  0.53403  0.83237  0.63985  1.0000
  Ti  Ti2       1.0  0.34320  0.09120  0.33321  1.0000
  Ti  Ti3       1.0  0.98447  0.61239  0.20458  1.0000
  Ti  Ti4       1.0  0.03528  0.00718  0.97893  1.0000
  Ti  Ti5       1.0  0.04041  0.78748  0.66241  1.0000
  Ti  Ti6       1.0  0.41103  0.26065  0.96748  1.0000
  Ti  Ti7       1.0  0.84867  0.97928  0.11331  1.0000
  Ti  Ti8       1.0  0.47844  0.20804  0.30556  1.0000
  Ti  Ti9       1.0  0.25123  0.79997  0.30921  1.0000
  Ti  Ti10      1.0  0.77119  0.87452  0.99937  1.0000
  Ti  Ti11      1.0  0.16136  0.52316  0.71129  1.0000
  Ti  Ti12      1.0  0.07415  0.66202  0.44754  1.0000
  Ti  Ti13      1.0  0.19013  0.26187  0.60993  1.0000
  Ti  Ti14      1.0  0.06113  0.04646  0.48298  1.0000
  Ti  Ti15      1.0  0.61090  0.29105  0.76508  1.0000
  Ti  Ti16      1.0  0.62646  0.95376  0.73447  1.0000
  Ti  Ti17      1.0  0.38089  0.16922  0.64885  1.0000
  Ti  Ti18      1.0  0.13416  0.63962  0.94599  1.0000
  Ti  Ti19      1.0  0.66485  0.80230  0.38058  1.0000
  Ti  Ti20      1.0  0.48576  0.00164  0.84762  1.0000
  Ti  Ti21      1.0  0.13440  0.08400  0.83968  1.0000
  Ti  Ti22      1.0  0.59076  0.40287  0.73358  1.0000
  Ti  Ti23      1.0  0.64913  0.04264  0.30553  1.0000
  Ti  Ti24      1.0  0.94636  0.91837  0.30612  1.0000
  Ti  Ti25      1.0  0.71300  0.71279  0.19318  1.0000
  Ti  Ti26      1.0  0.40753  0.93773  0.95820  1.0000
  Ti  Ti27      1.0  0.11005  0.79140  0.28535  1.0000
  Ti  Ti28      1.0  0.60945  0.36990  0.07396  1.0000
  Ti  Ti29      1.0  0.81335  0.93889  0.42193  1.0000
  Ti  Ti30      1.0  0.80463  0.29712  0.21838  1.0000
  Ti  Ti31      1.0  0.82441  0.29484  0.63612  1.0000
  Ti  Ti32      1.0  0.61153  0.24172  0.23676  1.0000
  Ti  Ti33      1.0  0.37460  0.89205  0.66735  1.0000
  Ti  Ti34      1.0  0.56015  0.50543  0.88449  1.0000
  Ti  Ti35      1.0  0.76248  0.47633  0.60006  1.0000
  Ti  Ti36      1.0  0.91644  0.56710  0.57974  1.0000
  Ti  Ti37      1.0  0.00459  0.36252  0.28336  1.0000
  Ti  Ti38      1.0  0.46616  0.34734  0.06821  1.0000
  Ti  Ti39      1.0  0.94866  0.02011  0.51713  1.0000
  Ti  Ti40      1.0  0.27687  0.05282  0.18397  1.0000
  Ti  Ti41      1.0  0.62700  0.64676  0.19693  1.0000
  Ti  Ti42      1.0  0.87640  0.28695  0.99829  1.0000
  Ti  Ti43      1.0  0.72413  0.10570  0.54145  1.0000
  Ti  Ti44      1.0  0.81692  0.53073  0.19318  1.0000
  Ti  Ti45      1.0  0.46166  0.52763  0.49393  1.0000
  Ti  Ti46      1.0  0.30456  0.44968  0.08697  1.0000
  Ti  Ti47      1.0  0.04493  0.46786  0.09623  1.0000
  Ti  Ti48      1.0  0.48784  0.72370  0.57909  1.0000
  Ti  Ti49      1.0  0.55616  0.80140  0.75561  1.0000
  Ti  Ti50      1.0  0.07772  0.17342  0.49500  1.0000
  Ti  Ti51      1.0  0.35398  0.14378  0.36759  1.0000
  Ti  Ti52      1.0  0.96424  0.02909  0.01741  1.0000
  Ti  Ti53      1.0  0.17844  0.64733  0.62926  1.0000
  Ti  Ti54      1.0  0.44829  0.20590  0.02142  1.0000
  Ti  Ti55      1.0  0.85015  0.94624  0.03808  1.0000
  Ti  Ti56      1.0  0.44376  0.22851  0.37508  1.0000
  Ti  Ti57      1.0  0.28769  0.75157  0.39543  1.0000
  Ti  Ti58      1.0  0.66808  0.14914  0.51167  1.0000
  Ti  Ti59      1.0  0.70056  0.92962  0.97954  1.0000
  Ti  Ti60      1.0  0.07644  0.60566  0.39244  1.0000
  Ti  Ti61      1.0  0.57356  0.32315  0.84556  1.0000
  Ti  Ti62      1.0  0.24416  0.24701  0.57181  1.0000
  Ti  Ti63      1.0  0.08233  0.99338  0.49442  1.0000
  Ti  Ti64      1.0  0.11207  0.62537  0.85313  1.0000
  Ti  Ti65      1.0  0.14964  0.33994  0.71744  1.0000
  Ti  Ti66      1.0  0.48484  0.38481  0.26844  1.0000
  Ti  Ti67      1.0  0.59730  0.81867  0.37820  1.0000
  Ti  Ti68      1.0  0.04255  0.34984  0.93185  1.0000
  Ti  Ti69      1.0  0.08468  0.13260  0.88282  1.0000
  Ti  Ti70      1.0  0.58964  0.42440  0.59930  1.0000
  Ti  Ti71      1.0  0.64055  0.01727  0.41261  1.0000
  Ti  Ti72      1.0  0.11290  0.93718  0.19993  1.0000
  Ti  Ti73      1.0  0.16224  0.76409  0.23927  1.0000
  Ti  Ti74      1.0  0.74309  0.72390  0.13558  1.0000
  Ti  Ti75      1.0  0.38417  0.99187  0.00732  1.0000
  Ti  Ti76      1.0  0.79999  0.30410  0.32688  1.0000
  Ti  Ti77      1.0  0.65817  0.36696  0.13970  1.0000
  Ti  Ti78      1.0  0.76406  0.00351  0.44972  1.0000
  Ti  Ti79      1.0  0.43818  0.44640  0.88748  1.0000
  Ti  Ti80      1.0  0.80492  0.24901  0.60896  1.0000
  Ti  Ti81      1.0  0.66453  0.25254  0.32344  1.0000
  Ti  Ti82      1.0  0.50891  0.53131  0.92163  1.0000
  Ti  Ti83      1.0  0.75900  0.52841  0.59007  1.0000
  Ti  Ti84      1.0  0.88958  0.55071  0.53764  1.0000
  Ti  Ti85      1.0  0.00766  0.30514  0.24922  1.0000
  Ti  Ti86      1.0  0.44653  0.37780  0.17439  1.0000
  Ti  Ti87      1.0  0.94342  0.98151  0.60274  1.0000
  Ti  Ti88      1.0  0.55250  0.90424  0.17564  1.0000
  Ti  Ti89      1.0  0.55012  0.69181  0.17535  1.0000
  Ti  Ti90      1.0  0.83826  0.26963  0.95107  1.0000
  Ti  Ti91      1.0  0.49945  0.53315  0.57768  1.0000
  Ti  Ti92      1.0  0.72036  0.01061  0.71026  1.0000
  Ti  Ti93      1.0  0.76266  0.54997  0.09478  1.0000
  Ti  Ti94      1.0  0.50598  0.75475  0.49798  1.0000
  Ti  Ti95      1.0  0.28775  0.43393  0.17366  1.0000
  Ti  Ti96      1.0  0.03840  0.49965  0.97519  1.0000
  I   I1        1.0  0.05162  0.49721  0.89670  1.0000
  I   I2        1.0  0.37580  0.05230  0.31216  1.0000
  I   I3        1.0  0.53276  0.78557  0.81265  1.0000
  I   I4        1.0  0.22368  0.63608  0.62328  1.0000
  I   I5        1.0  0.39185  0.29798  0.02010  1.0000
  I   I6        1.0  0.47040  0.16734  0.97770  1.0000
  I   I7        1.0  0.46951  0.17466  0.34779  1.0000
  I   I8        1.0  0.45090  0.23317  0.45700  1.0000
  I   I9        1.0  0.25682  0.75106  0.33616  1.0000
  I   I10       1.0  0.79755  0.82984  0.97873  1.0000
  I   I11       1.0  0.16302  0.49669  0.65018  1.0000
  I   I12       1.0  0.99978  0.79536  0.64522  1.0000
  I   I13       1.0  0.21912  0.21787  0.59397  1.0000
  I   I14       1.0  0.11810  0.95213  0.49010  1.0000
  I   I15       1.0  0.65595  0.25595  0.75638  1.0000
  I   I16       1.0  0.67152  0.94057  0.75263  1.0000
  I   I17       1.0  0.51850  0.34832  0.30869  1.0000
  I   I18       1.0  0.07645  0.63180  0.90089  1.0000
  I   I19       1.0  0.52101  0.97740  0.79680  1.0000
  I   I20       1.0  0.12793  0.52547  0.75538  1.0000
  I   I21       1.0  0.16089  0.05046  0.88845  1.0000
  I   I22       1.0  0.64828  0.99997  0.32269  1.0000
  I   I23       1.0  0.65981  0.06633  0.35776  1.0000
  I   I24       1.0  0.58161  0.45246  0.53694  1.0000
  I   I25       1.0  0.78198  0.72399  0.16261  1.0000
  I   I26       1.0  0.42105  0.99857  0.02376  1.0000
  I   I27       1.0  0.09633  0.78755  0.35902  1.0000
  I   I28       1.0  0.65350  0.37025  0.21967  1.0000
  I   I29       1.0  0.76331  0.04117  0.47894  1.0000
  I   I30       1.0  0.76920  0.31795  0.39130  1.0000
  I   I31       1.0  0.77293  0.24327  0.57757  1.0000
  I   I32       1.0  0.67667  0.22315  0.38374  1.0000
  I   I33       1.0  0.42615  0.49113  0.87085  1.0000
  I   I34       1.0  0.76353  0.56342  0.55627  1.0000
  I   I35       1.0  0.91470  0.57202  0.49056  1.0000
  I   I36       1.0  0.58917  0.46476  0.90983  1.0000
  I   I37       1.0  0.97555  0.29598  0.28948  1.0000
  I   I38       1.0  0.93382  0.98527  0.51060  1.0000
  I   I39       1.0  0.98964  0.33541  0.33155  1.0000
  I   I40       1.0  0.54348  0.68812  0.09299  1.0000
  I   I41       1.0  0.79806  0.29439  0.90685  1.0000
  I   I42       1.0  0.27386  0.01524  0.17940  1.0000
  I   I43       1.0  0.65176  0.17147  0.44081  1.0000
  I   I44       1.0  0.71900  0.56431  0.09870  1.0000
  I   I45       1.0  0.47818  0.56597  0.63098  1.0000
  I   I46       1.0  0.33546  0.43711  0.02550  1.0000
  I   I47       1.0  0.03385  0.46280  0.17137  1.0000
  I   I48       1.0  0.50057  0.73636  0.43423  1.0000
  I   I49       1.0  0.59266  0.76288  0.73433  1.0000
  I   I50       1.0  0.32124  0.12372  0.27421  1.0000
  I   I51       1.0  0.31823  0.07274  0.36092  1.0000
  I   I52       1.0  0.05000  0.98108  0.04812  1.0000
  I   I53       1.0  0.14190  0.68886  0.64167  1.0000
  I   I54       1.0  0.45973  0.19364  0.09885  1.0000
  I   I55       1.0  0.84297  0.93583  0.12408  1.0000
  I   I56       1.0  0.43699  0.23556  0.28399  1.0000
  I   I57       1.0  0.27860  0.77730  0.46936  1.0000
  I   I58       1.0  0.74544  0.90275  0.92853  1.0000
  I   I59       1.0  0.66671  0.94355  0.92429  1.0000
  I   I60       1.0  0.10784  0.62572  0.40105  1.0000
  I   I61       1.0  0.24390  0.23354  0.49472  1.0000
  I   I62       1.0  0.22896  0.28922  0.54873  1.0000
  I   I63       1.0  0.07611  0.00812  0.57270  1.0000
  I   I64       1.0  0.60780  0.99868  0.75397  1.0000
  I   I65       1.0  0.11485  0.38055  0.72549  1.0000
  I   I66       1.0  0.46959  0.41176  0.32971  1.0000
  I   I67       1.0  0.62372  0.81857  0.44613  1.0000
  I   I68       1.0  0.45541  0.98567  0.82394  1.0000
  I   I69       1.0  0.04720  0.13844  0.85168  1.0000
  I   I70       1.0  0.63340  0.41062  0.61509  1.0000
  I   I71       1.0  0.61039  0.05781  0.36798  1.0000
  I   I72       1.0  0.13966  0.90772  0.25067  1.0000
  I   I73       1.0  0.15024  0.74739  0.31255  1.0000
  I   I74       1.0  0.39415  0.98002  0.92366  1.0000
  I   I75       1.0  0.37634  0.99121  0.08324  1.0000
  I   I76       1.0  0.59476  0.39330  0.00460  1.0000
  I   I77       1.0  0.69322  0.37494  0.11653  1.0000
  I   I78       1.0  0.71935  0.02812  0.42602  1.0000
  I   I79       1.0  0.41403  0.85829  0.68842  1.0000
  I   I80       1.0  0.81545  0.32240  0.69288  1.0000
  I   I81       1.0  0.65690  0.23919  0.23852  1.0000
  I   I82       1.0  0.52998  0.51159  0.99123  1.0000
  I   I83       1.0  0.74519  0.55119  0.66527  1.0000
  I   I84       1.0  0.96231  0.55110  0.59426  1.0000
  I   I85       1.0  0.04367  0.33551  0.32556  1.0000
  I   I86       1.0  0.44733  0.33846  0.15931  1.0000
  I   I87       1.0  0.98351  0.99066  0.57023  1.0000
  I   I88       1.0  0.31545  0.04508  0.22300  1.0000
  I   I89       1.0  0.59348  0.69293  0.17180  1.0000
  I   I90       1.0  0.81148  0.25585  0.00005  1.0000
  I   I91       1.0  0.51703  0.50677  0.64503  1.0000
  I   I92       1.0  0.71511  0.04492  0.75600  1.0000
  I   I93       1.0  0.77117  0.52614  0.17719  1.0000
  I   I94       1.0  0.49295  0.76744  0.57956  1.0000
  I   I95       1.0  0.33918  0.41163  0.17865  1.0000
  I   I96       1.0  0.99854  0.50314  0.93784  1.0000
  I   I97       1.0  0.00485  0.58205  0.26735  1.0000
  I   I98       1.0  0.56341  0.83012  0.80090  1.0000
  I   I99       1.0  0.31164  0.14640  0.37782  1.0000
  I   I100      1.0  0.05850  0.98251  0.91265  1.0000
  I   I101      1.0  0.94036  0.06413  0.06073  1.0000
  I   I102      1.0  0.05514  0.81696  0.63308  1.0000
  I   I103      1.0  0.80346  0.96081  0.04931  1.0000
  I   I104      1.0  0.89562  0.94448  0.12153  1.0000
  I   I105      1.0  0.28773  0.71581  0.42880  1.0000
  I   I106      1.0  0.03495  0.61277  0.41674  1.0000
  I   I107      1.0  0.75747  0.88562  0.07997  1.0000
  I   I108      1.0  0.08475  0.63358  0.51597  1.0000
  I   I109      1.0  0.56726  0.34800  0.91328  1.0000
  I   I110      1.0  0.16202  0.24834  0.64600  1.0000
  I   I111      1.0  0.06146  0.07645  0.41773  1.0000
  I   I112      1.0  0.17161  0.63616  0.97723  1.0000
  I   I113      1.0  0.19253  0.33008  0.74075  1.0000
  I   I114      1.0  0.40795  0.12410  0.66565  1.0000
  I   I115      1.0  0.66082  0.82019  0.30058  1.0000
  I   I116      1.0  0.56592  0.86090  0.39202  1.0000
  I   I117      1.0  0.05391  0.37961  0.89111  1.0000
  I   I118      1.0  0.60535  0.38645  0.55428  1.0000
  I   I119      1.0  0.57142  0.40861  0.80526  1.0000
  I   I120      1.0  0.10733  0.97678  0.22850  1.0000
  I   I121      1.0  0.09245  0.77280  0.23252  1.0000
  I   I122      1.0  0.66262  0.73857  0.19578  1.0000
  I   I123      1.0  0.44541  0.92328  0.90359  1.0000
  I   I124      1.0  0.83099  0.29455  0.38772  1.0000
  I   I125      1.0  0.62748  0.33155  0.02749  1.0000
  I   I126      1.0  0.76821  0.95763  0.43274  1.0000
  I   I127      1.0  0.38010  0.93063  0.67073  1.0000
  I   I128      1.0  0.83316  0.20481  0.58655  1.0000
  I   I129      1.0  0.65157  0.29260  0.35220  1.0000
  I   I130      1.0  0.92605  0.51696  0.59056  1.0000
  I   I131      1.0  0.51260  0.54155  0.83047  1.0000
  I   I132      1.0  0.79307  0.49585  0.53278  1.0000
  I   I133      1.0  0.97882  0.00619  0.45408  1.0000
  I   I134      1.0  0.48013  0.36669  0.01020  1.0000
  I   I135      1.0  0.49496  0.35155  0.15590  1.0000
  I   I136      1.0  0.88080  0.24189  0.99869  1.0000
  I   I137      1.0  0.57401  0.86084  0.13817  1.0000
  I   I138      1.0  0.58864  0.64400  0.15183  1.0000
  I   I139      1.0  0.42940  0.51618  0.50051  1.0000
  I   I140      1.0  0.73469  0.96819  0.74634  1.0000
  I   I141      1.0  0.77876  0.52227  0.03307  1.0000
  I   I142      1.0  0.44777  0.74820  0.54187  1.0000
  I   I143      1.0  0.32213  0.47401  0.11608  1.0000
  I   I144      1.0  0.08519  0.46563  0.12893  1.0000
  I   I145      1.0  0.53104  0.87490  0.63522  1.0000
  I   I146      1.0  0.36338  0.10013  0.41065  1.0000
  I   I147      1.0  0.95391  0.59957  0.17174  1.0000
  I   I148      1.0  0.94685  0.00001  0.03982  1.0000
  I   I149      1.0  0.07140  0.75023  0.62375  1.0000
  I   I150      1.0  0.45385  0.24340  0.00429  1.0000
  I   I151      1.0  0.88188  0.89959  0.02874  1.0000
  I   I152      1.0  0.48003  0.24344  0.35097  1.0000
  I   I153      1.0  0.33377  0.73390  0.40005  1.0000
  I   I154      1.0  0.63870  0.17492  0.57248  1.0000
  I   I155      1.0  0.19282  0.49968  0.76849  1.0000
  I   I156      1.0  0.08365  0.57234  0.33831  1.0000
  I   I157      1.0  0.61232  0.31081  0.69660  1.0000
  I   I158      1.0  0.05940  0.96608  0.47348  1.0000
  I   I159      1.0  0.61179  0.27974  0.85700  1.0000
  I   I160      1.0  0.12905  0.61432  0.00454  1.0000
  I   I161      1.0  0.35671  0.18013  0.72240  1.0000
  I   I162      1.0  0.12320  0.58353  0.81640  1.0000
  I   I163      1.0  0.59704  0.81091  0.29878  1.0000
  I   I164      1.0  0.05306  0.30993  0.90091  1.0000
  I   I165      1.0  0.13160  0.11994  0.88364  1.0000
  I   I166      1.0  0.57375  0.39788  0.65790  1.0000
  I   I167      1.0  0.68638  0.01822  0.26244  1.0000
  I   I168      1.0  0.91284  0.95917  0.29736  1.0000
  I   I169      1.0  0.70587  0.75925  0.17327  1.0000
  I   I170      1.0  0.70339  0.67856  0.20837  1.0000
  I   I171      1.0  0.13519  0.79349  0.18465  1.0000
  I   I172      1.0  0.79813  0.26744  0.29434  1.0000
  I   I173      1.0  0.79126  0.99489  0.39058  1.0000
  I   I174      1.0  0.79770  0.26889  0.16287  1.0000
  I   I175      1.0  0.85569  0.24994  0.63589  1.0000
  I   I176      1.0  0.61646  0.24504  0.15759  1.0000
  I   I177      1.0  0.47875  0.42110  0.93080  1.0000
  I   I178      1.0  0.47178  0.52986  0.94562  1.0000
  I   I179      1.0  0.79871  0.49618  0.64441  1.0000
  I   I180      1.0  0.87484  0.55231  0.45356  1.0000
  I   I181      1.0  0.02527  0.28833  0.17365  1.0000
  I   I182      1.0  0.46298  0.35838  0.26692  1.0000
  I   I183      1.0  0.96663  0.93615  0.60814  1.0000
  I   I184      1.0  0.55038  0.90206  0.26131  1.0000
  I   I185      1.0  0.65430  0.63910  0.13238  1.0000
  I   I186      1.0  0.85745  0.30029  0.92118  1.0000
  I   I187      1.0  0.68881  0.00981  0.66253  1.0000
  I   I188      1.0  0.83994  0.55355  0.19330  1.0000
  I   I189      1.0  0.47178  0.51226  0.57050  1.0000
  I   I190      1.0  0.29336  0.43515  0.25212  1.0000
  I   I191      1.0  0.05945  0.15919  0.55501  1.0000
  I   I192      1.0  0.52588  0.70376  0.54268  1.0000
  I   I193      1.0  0.50722  0.82216  0.58315  1.0000
  I   I194      1.0  0.09705  0.14515  0.43348  1.0000
  I   I195      1.0  0.00677  0.61913  0.14029  1.0000
  I   I196      1.0  0.05802  0.03068  0.99186  1.0000
  I   I197      1.0  0.75898  0.12315  0.53960  1.0000
  I   I198      1.0  0.40595  0.21303  0.03770  1.0000
  I   I199      1.0  0.84690  0.94494  0.95564  1.0000
  I   I200      1.0  0.40500  0.27175  0.39284  1.0000
  I   I201      1.0  0.25087  0.83617  0.27814  1.0000
  I   I202      1.0  0.72540  0.87628  0.00441  1.0000
  I   I203      1.0  0.10533  0.06833  0.82658  1.0000
  I   I204      1.0  0.03160  0.70327  0.45122  1.0000
  I   I205      1.0  0.28684  0.22597  0.58004  1.0000
  I   I206      1.0  0.10890  0.01490  0.47229  1.0000
  I   I207      1.0  0.57810  0.27899  0.75338  1.0000
  I   I208      1.0  0.60949  0.92967  0.69522  1.0000
  I   I209      1.0  0.35277  0.16698  0.59455  1.0000
  I   I210      1.0  0.08567  0.64644  0.78204  1.0000
  I   I211      1.0  0.64876  0.77004  0.36960  1.0000
  I   I212      1.0  0.45992  0.04535  0.83256  1.0000
  I   I213      1.0  0.08979  0.10712  0.94649  1.0000
  I   I214      1.0  0.56296  0.45133  0.67424  1.0000
  I   I215      1.0  0.63517  0.06524  0.23319  1.0000
  I   I216      1.0  0.94834  0.88298  0.26212  1.0000
  I   I217      1.0  0.70608  0.71419  0.11297  1.0000
  I   I218      1.0  0.36008  0.96734  0.96926  1.0000
  I   I219      1.0  0.18780  0.72438  0.20818  1.0000
  I   I220      1.0  0.56380  0.38015  0.07808  1.0000
  I   I221      1.0  0.82882  0.89017  0.43137  1.0000
  I   I222      1.0  0.84659  0.27457  0.23756  1.0000
  I   I223      1.0  0.78027  0.29500  0.66187  1.0000
  I   I224      1.0  0.61767  0.20201  0.26554  1.0000
  I   I225      1.0  0.35268  0.88611  0.60946  1.0000
  I   I226      1.0  0.53039  0.48331  0.88573  1.0000
  I   I227      1.0  0.79203  0.44119  0.64063  1.0000
  I   I228      1.0  0.91188  0.61042  0.57099  1.0000
  I   I229      1.0  0.98621  0.35233  0.20734  1.0000
  I   I230      1.0  0.49337  0.30210  0.06573  1.0000
  I   I231      1.0  0.91365  0.97540  0.64807  1.0000
  I   I232      1.0  0.28471  0.06262  0.10811  1.0000
  I   I233      1.0  0.64336  0.65560  0.26484  1.0000
  I   I234      1.0  0.84545  0.24300  0.88557  1.0000
  I   I235      1.0  0.70966  0.12180  0.45891  1.0000
  I   I236      1.0  0.75521  0.59407  0.06205  1.0000
  I   I237      1.0  0.47282  0.50909  0.42101  1.0000
  I   I238      1.0  0.27842  0.48349  0.04191  1.0000
  I   I239      1.0  0.05612  0.52611  0.99993  1.0000
  I   I240      1.0  0.48104  0.79865  0.47286  1.0000
  I   I241      1.0  0.51536  0.82546  0.71743  1.0000
  I   I242      1.0  0.34953  0.16281  0.44526  1.0000
  I   I243      1.0  0.95709  0.65031  0.23893  1.0000
  I   I244      1.0  0.99616  0.00324  0.94899  1.0000
  I   I245      1.0  0.16716  0.63489  0.56003  1.0000
  I   I246      1.0  0.43861  0.21561  0.92087  1.0000
  I   I247      1.0  0.84400  0.99259  0.03615  1.0000
  I   I248      1.0  0.48427  0.18708  0.22907  1.0000
  I   I249      1.0  0.29140  0.79215  0.35708  1.0000
  I   I250      1.0  0.70906  0.96780  0.96709  1.0000
  I   I251      1.0  0.17580  0.55252  0.67526  1.0000
  I   I252      1.0  0.09922  0.57145  0.44337  1.0000
  I   I253      1.0  0.22938  0.25324  0.65999  1.0000
  I   I254      1.0  0.06368  0.01377  0.41875  1.0000
  I   I255      1.0  0.55102  0.35463  0.78946  1.0000
  I   I256      1.0  0.16193  0.35774  0.64434  1.0000
  I   I257      1.0  0.40464  0.18928  0.62291  1.0000
  I   I258      1.0  0.13381  0.65395  0.85465  1.0000
  I   I259      1.0  0.58042  0.79321  0.41267  1.0000
  I   I260      1.0  0.99859  0.37664  0.93142  1.0000
  I   I261      1.0  0.16895  0.08223  0.79646  1.0000
  I   I262      1.0  0.62813  0.36369  0.73572  1.0000
  I   I263      1.0  0.61027  0.00148  0.42384  1.0000
  I   I264      1.0  0.96853  0.89709  0.37619  1.0000
  I   I265      1.0  0.72993  0.71383  0.26358  1.0000
  I   I266      1.0  0.40068  0.90231  0.94439  1.0000
  I   I267      1.0  0.19655  0.77150  0.21069  1.0000
  I   I268      1.0  0.62926  0.40115  0.08275  1.0000
  I   I269      1.0  0.75241  0.99169  0.52645  1.0000
  I   I270      1.0  0.80485  0.34214  0.28832  1.0000
  I   I271      1.0  0.83978  0.30700  0.56724  1.0000
  I   I272      1.0  0.70397  0.24445  0.29045  1.0000
  I   I273      1.0  0.34377  0.90364  0.72968  1.0000
  I   I274      1.0  0.49543  0.57136  0.95965  1.0000
  I   I275      1.0  0.76298  0.44809  0.53842  1.0000
  I   I276      1.0  0.87650  0.51952  0.56576  1.0000
  I   I277      1.0  0.96076  0.39643  0.29786  1.0000
  I   I278      1.0  0.43154  0.39709  0.10141  1.0000
  I   I279      1.0  0.96055  0.05385  0.52244  1.0000
  I   I280      1.0  0.56456  0.93565  0.15800  1.0000
  I   I281      1.0  0.53606  0.67634  0.24304  1.0000
  I   I282      1.0  0.83905  0.30325  0.05249  1.0000
  I   I283      1.0  0.69500  0.14600  0.58819  1.0000
  I   I284      1.0  0.81619  0.51645  0.26924  1.0000
  I   I285      1.0  0.43819  0.57325  0.49966  1.0000
  I   I286      1.0  0.28445  0.39428  0.18285  1.0000
  I   I287      1.0  0.05768  0.42066  0.10313  1.0000
  I   I288      1.0  0.49129  0.68168  0.58345  1.0000
  I   I289      1.0  0.57326  0.82425  0.69724  1.0000
  I   I290      1.0  0.04249  0.21388  0.47579  1.0000
  I   I291      1.0  0.39426  0.12568  0.31904  1.0000
  I   I292      1.0  0.94110  0.04182  0.94808  1.0000
  I   I293      1.0  0.17631  0.62359  0.69387  1.0000
  I   I294      1.0  0.41714  0.29279  0.92469  1.0000
  I   I295      1.0  0.85926  0.01135  0.13382  1.0000
  I   I296      1.0  0.52116  0.18691  0.33902  1.0000
  I   I297      1.0  0.20772  0.81029  0.31370  1.0000
  I   I298      1.0  0.64247  0.12974  0.48578  1.0000
  I   I299      1.0  0.80671  0.88081  0.99966  1.0000
  I   I300      1.0  0.06161  0.65332  0.35216  1.0000
  I   I301      1.0  0.61119  0.32969  0.80472  1.0000
  I   I302      1.0  0.17233  0.27643  0.53818  1.0000
  I   I303      1.0  0.05349  0.07435  0.54759  1.0000
  I   I304      1.0  0.09649  0.67858  0.95443  1.0000
  I   I305      1.0  0.61843  0.94202  0.81228  1.0000
  I   I306      1.0  0.40187  0.38947  0.20208  1.0000
  I   I307      1.0  0.66282  0.84157  0.41537  1.0000
  I   I308      1.0  0.46972  0.99729  0.92200  1.0000
  I   I309      1.0  0.07767  0.16865  0.93332  1.0000
  I   I310      1.0  0.61648  0.42731  0.74790  1.0000
  I   I311      1.0  0.63793  0.03585  0.49103  1.0000
  I   I312      1.0  0.12336  0.93216  0.11916  1.0000
  I   I313      1.0  0.14464  0.80164  0.29690  1.0000
  I   I314      1.0  0.76149  0.67963  0.16905  1.0000
  I   I315      1.0  0.36037  0.03844  0.99473  1.0000
  I   I316      1.0  0.80640  0.32693  0.17308  1.0000
  I   I317      1.0  0.62350  0.34565  0.15761  1.0000
  I   I318      1.0  0.82605  0.95552  0.48311  1.0000
  I   I319      1.0  0.41527  0.42386  0.88493  1.0000
  I   I320      1.0  0.80172  0.22783  0.68342  1.0000
  I   I321      1.0  0.56690  0.26933  0.25219  1.0000
  I   I322      1.0  0.57518  0.53203  0.92696  1.0000
  I   I323      1.0  0.72657  0.52081  0.55430  1.0000
  I   I324      1.0  0.90183  0.56956  0.66084  1.0000
  I   I325      1.0  0.03590  0.27476  0.29773  1.0000
  I   I326      1.0  0.44681  0.41466  0.21368  1.0000
  I   I327      1.0  0.90283  0.04321  0.51530  1.0000
  I   I328      1.0  0.23826  0.07989  0.21990  1.0000
  I   I329      1.0  0.53098  0.73442  0.19719  1.0000
  I   I330      1.0  0.91115  0.29282  0.96501  1.0000
  I   I331      1.0  0.51310  0.51024  0.48989  1.0000
  I   I332      1.0  0.74707  0.08066  0.60686  1.0000
  I   I333      1.0  0.81058  0.54766  0.10880  1.0000
  I   I334      1.0  0.53998  0.76365  0.50430  1.0000
  I   I335      1.0  0.26363  0.48017  0.15630  1.0000
  I   I336      1.0  0.01337  0.50771  0.05508  1.0000
  I   I337      1.0  0.57201  0.80678  0.59460  1.0000
  I   I338      1.0  0.10645  0.18887  0.50321  1.0000
  I   I339      1.0  0.33130  0.18541  0.32989  1.0000
  I   I340      1.0  0.99794  0.04176  0.02880  1.0000
  I   I341      1.0  0.03914  0.79536  0.74039  1.0000
  I   I342      1.0  0.38120  0.24964  0.93557  1.0000
  I   I343      1.0  0.80115  0.00337  0.12394  1.0000
  I   I344      1.0  0.41546  0.21086  0.39833  1.0000
  I   I345      1.0  0.26943  0.78230  0.23414  1.0000
  I   I346      1.0  0.69455  0.08809  0.54428  1.0000
  I   I347      1.0  0.68936  0.93585  0.05812  1.0000
  I   I348      1.0  0.09724  0.68448  0.46193  1.0000
  I   I349      1.0  0.53662  0.31658  0.85092  1.0000
  I   I350      1.0  0.17267  0.30036  0.66705  1.0000
  I   I351      1.0  0.01742  0.05761  0.46879  1.0000
  I   I352      1.0  0.15516  0.59612  0.89604  1.0000
  I   I353      1.0  0.12935  0.32338  0.77229  1.0000
  I   I354      1.0  0.51628  0.39222  0.22674  1.0000
  I   I355      1.0  0.70727  0.77414  0.38929  1.0000
  I   I356      1.0  0.06123  0.33930  0.00523  1.0000
  I   I357      1.0  0.10166  0.12975  0.79145  1.0000
  I   I358      1.0  0.97797  0.92651  0.27121  1.0000
  I   I359      1.0  0.68068  0.98366  0.44289  1.0000
  I   I360      1.0  0.07346  0.93712  0.22139  1.0000
  I   I361      1.0  0.06756  0.83219  0.27743  1.0000
  I   I362      1.0  0.74533  0.73209  0.05583  1.0000
  I   I363      1.0  0.42603  0.93085  0.03338  1.0000
  I   I364      1.0  0.76322  0.31995  0.27140  1.0000
  I   I365      1.0  0.67761  0.32170  0.12193  1.0000
  I   I366      1.0  0.81607  0.94089  0.33729  1.0000
  I   I367      1.0  0.46023  0.42872  0.81301  1.0000
  I   I368      1.0  0.79993  0.28959  0.56033  1.0000
  I   I369      1.0  0.61561  0.26146  0.32769  1.0000
  I   I370      1.0  0.58509  0.50109  0.81573  1.0000
  I   I371      1.0  0.72963  0.48815  0.65727  1.0000
  I   I372      1.0  0.85684  0.59116  0.56462  1.0000
  I   I373      1.0  0.01758  0.39094  0.24467  1.0000
  I   I374      1.0  0.42807  0.34991  0.03985  1.0000
  I   I375      1.0  0.96420  0.98958  0.66338  1.0000
  I   I376      1.0  0.51368  0.92234  0.14541  1.0000
  I   I377      1.0  0.62906  0.60772  0.22034  1.0000
  I   I378      1.0  0.90104  0.27635  0.07289  1.0000
  I   I379      1.0  0.53414  0.54309  0.57196  1.0000
  I   I380      1.0  0.75888  0.00048  0.66455  1.0000
  I   I381      1.0  0.84848  0.49182  0.15293  1.0000
  I   I382      1.0  0.48178  0.73551  0.66364  1.0000
  I   I383      1.0  0.29106  0.41543  0.09417  1.0000
  I   I384      1.0  0.06504  0.46042  0.00939  1.0000
