data_image0
_chemical_formula_structural       Ti96I384
_chemical_formula_sum              "Ti96 I384"
_cell_length_a       59.1691
_cell_length_b       59.6665
_cell_length_c       28.8401
_cell_angle_alpha    88.7757
_cell_angle_beta     88.7757
_cell_angle_gamma    62.1586

_space_group_name_H-M_alt    "P 1"
_space_group_IT_number       1

loop_
  _space_group_symop_operation_xyz
  'x, y, z'

loop_
  _atom_site_type_symbol
  _atom_site_label
  _atom_site_symmetry_multiplicity
  _atom_site_fract_x
  _atom_site_fract_y
  _atom_site_fract_z
  _atom_site_occupancy
  Ti  Ti1       1.0  0.93923  0.81631  0.71537  1.0000
  Ti  Ti2       1.0  0.76768  0.06547  0.73450  1.0000
  Ti  Ti3       1.0  0.76687  0.83134  0.70683  1.0000
  Ti  Ti4       1.0  0.41651  0.49354  0.36325  1.0000
  Ti  Ti5       1.0  0.06218  0.72445  0.24725  1.0000
  Ti  Ti6       1.0  0.30757  0.02722  0.15772  1.0000
  Ti  Ti7       1.0  0.08086  0.86314  0.97617  1.0000
  Ti  Ti8       1.0  0.21820  0.63883  0.30894  1.0000
  Ti  Ti9       1.0  0.75783  0.27978  0.25175  1.0000
  Ti  Ti10      1.0  0.67280  0.11848  0.31884  1.0000
  Ti  Ti11      1.0  0.05357  0.74915  0.84726  1.0000
  Ti  Ti12      1.0  0.55386  0.72467  0.11978  1.0000
  Ti  Ti13      1.0  0.37704  0.24821  0.62264  1.0000
  Ti  Ti14      1.0  0.08203  0.24591  0.97346  1.0000
  Ti  Ti15      1.0  0.19309  0.87568  0.90926  1.0000
  Ti  Ti16      1.0  0.90277  0.13907  0.63432  1.0000
  Ti  Ti17      1.0  0.08785  0.48373  0.10740  1.0000
  Ti  Ti18      1.0  0.03156  0.41931  0.32381  1.0000
  Ti  Ti19      1.0  0.69896  0.82507  0.37266  1.0000
  Ti  Ti20      1.0  0.56770  0.00065  0.12567  1.0000
  Ti  Ti21      1.0  0.27196  0.51816  0.66939  1.0000
  Ti  Ti22      1.0  0.47192  0.96302  0.34996  1.0000
  Ti  Ti23      1.0  0.47991  0.84535  0.82119  1.0000
  Ti  Ti24      1.0  0.43403  0.04171  0.54929  1.0000
  Ti  Ti25      1.0  0.18141  0.28679  0.39211  1.0000
  Ti  Ti26      1.0  0.28263  0.33933  0.78688  1.0000
  Ti  Ti27      1.0  0.45760  0.55717  0.68254  1.0000
  Ti  Ti28      1.0  0.62083  0.57852  0.69286  1.0000
  Ti  Ti29      1.0  0.97759  0.30294  0.41143  1.0000
  Ti  Ti30      1.0  0.78978  0.46470  0.83053  1.0000
  Ti  Ti31      1.0  0.83144  0.38078  0.34076  1.0000
  Ti  Ti32      1.0  0.87464  0.02431  0.01262  1.0000
  Ti  Ti33      1.0  0.34638  0.88248  0.62906  1.0000
  Ti  Ti34      1.0  0.92422  0.72746  0.48965  1.0000
  Ti  Ti35      1.0  0.61483  0.45146  0.98599  1.0000
  Ti  Ti36      1.0  0.97747  0.47027  0.70809  1.0000
  Ti  Ti37      1.0  0.10876  0.18723  0.67665  1.0000
  Ti  Ti38      1.0  0.63617  0.21746  0.47012  1.0000
  Ti  Ti39      1.0  0.34212  0.26820  0.19014  1.0000
  Ti  Ti40      1.0  0.13212  0.58115  0.14211  1.0000
  Ti  Ti41      1.0  0.60082  0.57522  0.27287  1.0000
  Ti  Ti42      1.0  0.26643  0.81422  0.49682  1.0000
  Ti  Ti43      1.0  0.12364  0.96920  0.53277  1.0000
  Ti  Ti44      1.0  0.76064  0.66736  0.01988  1.0000
  Ti  Ti45      1.0  0.76288  0.37946  0.56369  1.0000
  Ti  Ti46      1.0  0.89346  0.03849  0.35138  1.0000
  Ti  Ti47      1.0  0.58608  0.26508  0.09897  1.0000
  Ti  Ti48      1.0  0.46988  0.53083  0.03917  1.0000
  Ti  Ti49      1.0  0.94282  0.84552  0.84886  1.0000
  Ti  Ti50      1.0  0.57072  0.13669  0.95487  1.0000
  Ti  Ti51      1.0  0.77161  0.99563  0.63080  1.0000
  Ti  Ti52      1.0  0.44038  0.40823  0.34071  1.0000
  Ti  Ti53      1.0  0.01683  0.79645  0.17065  1.0000
  Ti  Ti54      1.0  0.27184  0.09667  0.15135  1.0000
  Ti  Ti55      1.0  0.08826  0.85117  0.83359  1.0000
  Ti  Ti56      1.0  0.26760  0.63655  0.26890  1.0000
  Ti  Ti57      1.0  0.76490  0.22212  0.23048  1.0000
  Ti  Ti58      1.0  0.09353  0.93298  0.58380  1.0000
  Ti  Ti59      1.0  0.69135  0.11665  0.42458  1.0000
  Ti  Ti60      1.0  0.52681  0.68129  0.09859  1.0000
  Ti  Ti61      1.0  0.23142  0.80989  0.91696  1.0000
  Ti  Ti62      1.0  0.37432  0.19625  0.60868  1.0000
  Ti  Ti63      1.0  0.06129  0.26529  0.08294  1.0000
  Ti  Ti64      1.0  0.01818  0.46447  0.20989  1.0000
  Ti  Ti65      1.0  0.93507  0.17766  0.59691  1.0000
  Ti  Ti66      1.0  0.51692  0.33492  0.77879  1.0000
  Ti  Ti67      1.0  0.73363  0.76957  0.34032  1.0000
  Ti  Ti68      1.0  0.50374  0.02002  0.05557  1.0000
  Ti  Ti69      1.0  0.32011  0.45293  0.73589  1.0000
  Ti  Ti70      1.0  0.48296  0.97016  0.48927  1.0000
  Ti  Ti71      1.0  0.41232  0.85455  0.86901  1.0000
  Ti  Ti72      1.0  0.02694  0.83468  0.47038  1.0000
  Ti  Ti73      1.0  0.49258  0.51824  0.77073  1.0000
  Ti  Ti74      1.0  0.25560  0.27738  0.42860  1.0000
  Ti  Ti75      1.0  0.23195  0.34092  0.77591  1.0000
  Ti  Ti76      1.0  0.74601  0.52013  0.89243  1.0000
  Ti  Ti77      1.0  0.56380  0.65652  0.67143  1.0000
  Ti  Ti78      1.0  0.03267  0.23616  0.36379  1.0000
  Ti  Ti79      1.0  0.37846  0.86994  0.53191  1.0000
  Ti  Ti80      1.0  0.75047  0.42708  0.29969  1.0000
  Ti  Ti81      1.0  0.89699  0.96915  0.11929  1.0000
  Ti  Ti82      1.0  0.90966  0.69264  0.56464  1.0000
  Ti  Ti83      1.0  0.65519  0.44711  0.86026  1.0000
  Ti  Ti84      1.0  0.95962  0.51979  0.65222  1.0000
  Ti  Ti85      1.0  0.06291  0.27208  0.63192  1.0000
  Ti  Ti86      1.0  0.56417  0.26885  0.53739  1.0000
  Ti  Ti87      1.0  0.28532  0.29369  0.06607  1.0000
  Ti  Ti88      1.0  0.08011  0.54600  0.17503  1.0000
  Ti  Ti89      1.0  0.62657  0.63035  0.32811  1.0000
  Ti  Ti90      1.0  0.29951  0.77324  0.44584  1.0000
  Ti  Ti91      1.0  0.70194  0.37378  0.61451  1.0000
  Ti  Ti92      1.0  0.01666  0.10374  0.95835  1.0000
  Ti  Ti93      1.0  0.76400  0.72977  0.95277  1.0000
  Ti  Ti94      1.0  0.46194  0.48904  0.10372  1.0000
  Ti  Ti95      1.0  0.89094  0.00587  0.48074  1.0000
  Ti  Ti96      1.0  0.60188  0.21575  0.03344  1.0000
  I   I1        1.0  0.57524  0.15375  0.87218  1.0000
  I   I2        1.0  0.73835  0.02970  0.57474  1.0000
  I   I3        1.0  0.90801  0.85208  0.65794  1.0000
  I   I4        1.0  0.01605  0.78812  0.08324  1.0000
  I   I5        1.0  0.33579  0.98743  0.21610  1.0000
  I   I6        1.0  0.29137  0.12898  0.14213  1.0000
  I   I7        1.0  0.29290  0.65823  0.22744  1.0000
  I   I8        1.0  0.24372  0.59223  0.33738  1.0000
  I   I9        1.0  0.76315  0.25415  0.33255  1.0000
  I   I10       1.0  0.66723  0.07507  0.29350  1.0000
  I   I11       1.0  0.04529  0.71075  0.85041  1.0000
  I   I12       1.0  0.05343  0.69086  0.29099  1.0000
  I   I13       1.0  0.35816  0.22517  0.69706  1.0000
  I   I14       1.0  0.03874  0.28125  0.94307  1.0000
  I   I15       1.0  0.17517  0.84133  0.92562  1.0000
  I   I16       1.0  0.88239  0.19087  0.61421  1.0000
  I   I17       1.0  0.47914  0.37192  0.73815  1.0000
  I   I18       1.0  0.05953  0.41501  0.23398  1.0000
  I   I19       1.0  0.55051  0.02073  0.02831  1.0000
  I   I20       1.0  0.03278  0.78749  0.90312  1.0000
  I   I21       1.0  0.35181  0.41831  0.68046  1.0000
  I   I22       1.0  0.45217  0.87429  0.88802  1.0000
  I   I23       1.0  0.44198  0.85197  0.75607  1.0000
  I   I24       1.0  0.45691  0.99086  0.57806  1.0000
  I   I25       1.0  0.22768  0.24795  0.42345  1.0000
  I   I26       1.0  0.26314  0.36769  0.86224  1.0000
  I   I27       1.0  0.46914  0.59035  0.71884  1.0000
  I   I28       1.0  0.56644  0.60687  0.64657  1.0000
  I   I29       1.0  0.03405  0.25706  0.44383  1.0000
  I   I30       1.0  0.79678  0.49919  0.79164  1.0000
  I   I31       1.0  0.71985  0.40733  0.31966  1.0000
  I   I32       1.0  0.93462  0.96585  0.16962  1.0000
  I   I33       1.0  0.33575  0.90799  0.49970  1.0000
  I   I34       1.0  0.63256  0.41898  0.05965  1.0000
  I   I35       1.0  0.93855  0.53587  0.56261  1.0000
  I   I36       1.0  0.90454  0.74127  0.58593  1.0000
  I   I37       1.0  0.09756  0.15346  0.71455  1.0000
  I   I38       1.0  0.30411  0.25743  0.14725  1.0000
  I   I39       1.0  0.04519  0.30821  0.68925  1.0000
  I   I40       1.0  0.61047  0.56292  0.18707  1.0000
  I   I41       1.0  0.28806  0.75383  0.52415  1.0000
  I   I42       1.0  0.03446  0.54763  0.17833  1.0000
  I   I43       1.0  0.06731  0.97552  0.52172  1.0000
  I   I44       1.0  0.76036  0.73039  0.85951  1.0000
  I   I45       1.0  0.73635  0.35057  0.53849  1.0000
  I   I46       1.0  0.91554  0.03057  0.27283  1.0000
  I   I47       1.0  0.55776  0.29638  0.16708  1.0000
  I   I48       1.0  0.45767  0.50477  0.97956  1.0000
  I   I49       1.0  0.91258  0.79138  0.70727  1.0000
  I   I50       1.0  0.73621  0.08302  0.80195  1.0000
  I   I51       1.0  0.81035  0.04687  0.78620  1.0000
  I   I52       1.0  0.39459  0.51806  0.43364  1.0000
  I   I53       1.0  0.07015  0.76348  0.18273  1.0000
  I   I54       1.0  0.26422  0.09800  0.06184  1.0000
  I   I55       1.0  0.05831  0.84796  0.04008  1.0000
  I   I56       1.0  0.18248  0.65908  0.37240  1.0000
  I   I57       1.0  0.81192  0.19930  0.25506  1.0000
  I   I58       1.0  0.71979  0.08386  0.35984  1.0000
  I   I59       1.0  0.69623  0.14637  0.34016  1.0000
  I   I60       1.0  0.48679  0.67708  0.14093  1.0000
  I   I61       1.0  0.40501  0.15074  0.64332  1.0000
  I   I62       1.0  0.33336  0.18882  0.61057  1.0000
  I   I63       1.0  0.09583  0.27674  0.03781  1.0000
  I   I64       1.0  0.87402  0.14854  0.70877  1.0000
  I   I65       1.0  0.93771  0.16516  0.50862  1.0000
  I   I66       1.0  0.52787  0.29607  0.72561  1.0000
  I   I67       1.0  0.77815  0.74468  0.29541  1.0000
  I   I68       1.0  0.58836  0.02905  0.15693  1.0000
  I   I69       1.0  0.22635  0.53922  0.63256  1.0000
  I   I70       1.0  0.51608  0.94603  0.41355  1.0000
  I   I71       1.0  0.45698  0.81445  0.87348  1.0000
  I   I72       1.0  0.03528  0.86346  0.41583  1.0000
  I   I73       1.0  0.48831  0.54277  0.84572  1.0000
  I   I74       1.0  0.25127  0.37191  0.71568  1.0000
  I   I75       1.0  0.20906  0.31870  0.72816  1.0000
  I   I76       1.0  0.66273  0.56927  0.64402  1.0000
  I   I77       1.0  0.62051  0.53769  0.66989  1.0000
  I   I78       1.0  0.98441  0.24657  0.40946  1.0000
  I   I79       1.0  0.41152  0.88826  0.51504  1.0000
  I   I80       1.0  0.82303  0.34504  0.39194  1.0000
  I   I81       1.0  0.85542  0.98954  0.01604  1.0000
  I   I82       1.0  0.87516  0.72132  0.49490  1.0000
  I   I83       1.0  0.60365  0.49151  0.03003  1.0000
  I   I84       1.0  0.95746  0.52066  0.75130  1.0000
  I   I85       1.0  0.07330  0.22189  0.60779  1.0000
  I   I86       1.0  0.54016  0.28314  0.45895  1.0000
  I   I87       1.0  0.31208  0.31260  0.22602  1.0000
  I   I88       1.0  0.12579  0.61346  0.20228  1.0000
  I   I89       1.0  0.60647  0.66608  0.39526  1.0000
  I   I90       1.0  0.22737  0.80396  0.50508  1.0000
  I   I91       1.0  0.70233  0.33134  0.64320  1.0000
  I   I92       1.0  0.00351  0.12578  0.87658  1.0000
  I   I93       1.0  0.79544  0.67405  0.95009  1.0000
  I   I94       1.0  0.42354  0.57240  0.05008  1.0000
  I   I95       1.0  0.91289  0.95757  0.50101  1.0000
  I   I96       1.0  0.59099  0.21797  0.13682  1.0000
  I   I97       1.0  0.76879  0.79036  0.74471  1.0000
  I   I98       1.0  0.89909  0.84739  0.82659  1.0000
  I   I99       1.0  0.80104  0.00798  0.67638  1.0000
  I   I100      1.0  0.39032  0.52614  0.29828  1.0000
  I   I101      1.0  0.48428  0.36765  0.37057  1.0000
  I   I102      1.0  0.09265  0.68699  0.19968  1.0000
  I   I103      1.0  0.11550  0.82931  0.90635  1.0000
  I   I104      1.0  0.06182  0.89960  0.87405  1.0000
  I   I105      1.0  0.71904  0.26856  0.25653  1.0000
  I   I106      1.0  0.57016  0.74045  0.05067  1.0000
  I   I107      1.0  0.65785  0.14224  0.24098  1.0000
  I   I108      1.0  0.52277  0.70517  0.18676  1.0000
  I   I109      1.0  0.20951  0.90784  0.86391  1.0000
  I   I110      1.0  0.37910  0.18616  0.52080  1.0000
  I   I111      1.0  0.10785  0.26213  0.92338  1.0000
  I   I112      1.0  0.04523  0.47123  0.27936  1.0000
  I   I113      1.0  0.94335  0.13995  0.66478  1.0000
  I   I114      1.0  0.07321  0.53789  0.08299  1.0000
  I   I115      1.0  0.66927  0.80292  0.39946  1.0000
  I   I116      1.0  0.71958  0.73460  0.34060  1.0000
  I   I117      1.0  0.45777  0.05418  0.03973  1.0000
  I   I118      1.0  0.44396  0.96727  0.44051  1.0000
  I   I119      1.0  0.43808  0.00497  0.31658  1.0000
  I   I120      1.0  0.05297  0.83542  0.54034  1.0000
  I   I121      1.0  0.48802  0.54855  0.61109  1.0000
  I   I122      1.0  0.27114  0.31025  0.45162  1.0000
  I   I123      1.0  0.31288  0.35841  0.74434  1.0000
  I   I124      1.0  0.77913  0.52874  0.93230  1.0000
  I   I125      1.0  0.60603  0.62864  0.73340  1.0000
  I   I126      1.0  0.02503  0.20175  0.32039  1.0000
  I   I127      1.0  0.35044  0.86658  0.72030  1.0000
  I   I128      1.0  0.87325  0.34362  0.29205  1.0000
  I   I129      1.0  0.86167  0.01896  0.10693  1.0000
  I   I130      1.0  0.00427  0.44823  0.63074  1.0000
  I   I131      1.0  0.89157  0.76969  0.43897  1.0000
  I   I132      1.0  0.66347  0.45428  0.95884  1.0000
  I   I133      1.0  0.34236  0.24107  0.26354  1.0000
  I   I134      1.0  0.59353  0.22068  0.44330  1.0000
  I   I135      1.0  0.65232  0.21999  0.38961  1.0000
  I   I136      1.0  0.25469  0.86308  0.50281  1.0000
  I   I137      1.0  0.13440  0.53683  0.19021  1.0000
  I   I138      1.0  0.55501  0.57665  0.28016  1.0000
  I   I139      1.0  0.80383  0.34622  0.59524  1.0000
  I   I140      1.0  0.06173  0.09468  0.97632  1.0000
  I   I141      1.0  0.79718  0.71968  0.02154  1.0000
  I   I142      1.0  0.48463  0.53036  0.12918  1.0000
  I   I143      1.0  0.88177  0.05398  0.44768  1.0000
  I   I144      1.0  0.57793  0.29969  0.03674  1.0000
  I   I145      1.0  0.95480  0.84848  0.75163  1.0000
  I   I146      1.0  0.73743  0.04888  0.68743  1.0000
  I   I147      1.0  0.81015  0.83112  0.69124  1.0000
  I   I148      1.0  0.41551  0.38749  0.38242  1.0000
  I   I149      1.0  0.03094  0.83323  0.18424  1.0000
  I   I150      1.0  0.26222  0.03961  0.12093  1.0000
  I   I151      1.0  0.11896  0.86684  0.79840  1.0000
  I   I152      1.0  0.25526  0.63154  0.18094  1.0000
  I   I153      1.0  0.72872  0.32983  0.26379  1.0000
  I   I154      1.0  0.14344  0.90790  0.55997  1.0000
  I   I155      1.0  0.10189  0.73017  0.84324  1.0000
  I   I156      1.0  0.58250  0.71077  0.19278  1.0000
  I   I157      1.0  0.28086  0.79200  0.89847  1.0000
  I   I158      1.0  0.02534  0.26654  0.14024  1.0000
  I   I159      1.0  0.22191  0.77414  0.87694  1.0000
  I   I160      1.0  0.98492  0.43290  0.37224  1.0000
  I   I161      1.0  0.04586  0.49233  0.05864  1.0000
  I   I162      1.0  0.98754  0.45313  0.26148  1.0000
  I   I163      1.0  0.75080  0.76175  0.42479  1.0000
  I   I164      1.0  0.60010  0.96272  0.07364  1.0000
  I   I165      1.0  0.30296  0.48422  0.60255  1.0000
  I   I166      1.0  0.49103  0.92751  0.53704  1.0000
  I   I167      1.0  0.52072  0.81257  0.85632  1.0000
  I   I168      1.0  0.44531  0.07872  0.52433  1.0000
  I   I169      1.0  0.20938  0.31575  0.41270  1.0000
  I   I170      1.0  0.15911  0.25664  0.39796  1.0000
  I   I171      1.0  0.47879  0.50431  0.67741  1.0000
  I   I172      1.0  0.71335  0.53732  0.96137  1.0000
  I   I173      1.0  0.07696  0.21272  0.32850  1.0000
  I   I174      1.0  0.77988  0.43089  0.78804  1.0000
  I   I175      1.0  0.78824  0.42693  0.35771  1.0000
  I   I176      1.0  0.87851  0.95078  0.18270  1.0000
  I   I177      1.0  0.36011  0.91676  0.63169  1.0000
  I   I178      1.0  0.96319  0.73686  0.48955  1.0000
  I   I179      1.0  0.57466  0.44924  0.95118  1.0000
  I   I180      1.0  0.92754  0.50018  0.66265  1.0000
  I   I181      1.0  0.15162  0.17559  0.72301  1.0000
  I   I182      1.0  0.53362  0.25757  0.59565  1.0000
  I   I183      1.0  0.39408  0.25167  0.18670  1.0000
  I   I184      1.0  0.18332  0.55248  0.16208  1.0000
  I   I185      1.0  0.62751  0.53467  0.32062  1.0000
  I   I186      1.0  0.25767  0.83060  0.41036  1.0000
  I   I187      1.0  0.98876  0.12189  0.03220  1.0000
  I   I188      1.0  0.72328  0.72170  0.96998  1.0000
  I   I189      1.0  0.70542  0.41700  0.57776  1.0000
  I   I190      1.0  0.89291  0.08420  0.34569  1.0000
  I   I191      1.0  0.61899  0.16669  0.02466  1.0000
  I   I192      1.0  0.45304  0.45064  0.08612  1.0000
  I   I193      1.0  0.94434  0.83755  0.93709  1.0000
  I   I194      1.0  0.61701  0.10432  0.98029  1.0000
  I   I195      1.0  0.73323  0.85267  0.63970  1.0000
  I   I196      1.0  0.45749  0.44299  0.38878  1.0000
  I   I197      1.0  0.10355  0.97310  0.62195  1.0000
  I   I198      1.0  0.32722  0.04907  0.11002  1.0000
  I   I199      1.0  0.10914  0.87603  0.02483  1.0000
  I   I200      1.0  0.30703  0.59438  0.27626  1.0000
  I   I201      1.0  0.79923  0.28622  0.27735  1.0000
  I   I202      1.0  0.72847  0.11991  0.47158  1.0000
  I   I203      1.0  0.27420  0.45863  0.72957  1.0000
  I   I204      1.0  0.53872  0.64242  0.04108  1.0000
  I   I205      1.0  0.35355  0.29005  0.67862  1.0000
  I   I206      1.0  0.09002  0.25733  0.15287  1.0000
  I   I207      1.0  0.23246  0.79540  0.00098  1.0000
  I   I208      1.0  0.88715  0.14241  0.54609  1.0000
  I   I209      1.0  0.13347  0.48092  0.09065  1.0000
  I   I210      1.0  0.03869  0.37440  0.32071  1.0000
  I   I211      1.0  0.74660  0.81318  0.34038  1.0000
  I   I212      1.0  0.56617  0.98592  0.21205  1.0000
  I   I213      1.0  0.28035  0.55531  0.65166  1.0000
  I   I214      1.0  0.47549  0.92246  0.31112  1.0000
  I   I215      1.0  0.38164  0.85702  0.93911  1.0000
  I   I216      1.0  0.38364  0.05969  0.54079  1.0000
  I   I217      1.0  0.19354  0.27757  0.30835  1.0000
  I   I218      1.0  0.31543  0.30445  0.83729  1.0000
  I   I219      1.0  0.43931  0.53588  0.76555  1.0000
  I   I220      1.0  0.52917  0.67396  0.60814  1.0000
  I   I221      1.0  0.00986  0.28034  0.32678  1.0000
  I   I222      1.0  0.83314  0.42659  0.84707  1.0000
  I   I223      1.0  0.73793  0.45208  0.21963  1.0000
  I   I224      1.0  0.87460  0.06499  0.04142  1.0000
  I   I225      1.0  0.29791  0.90444  0.65427  1.0000
  I   I226      1.0  0.96046  0.68138  0.54109  1.0000
  I   I227      1.0  0.60817  0.47969  0.89936  1.0000
  I   I228      1.0  0.00793  0.51446  0.65145  1.0000
  I   I229      1.0  0.10760  0.27169  0.62779  1.0000
  I   I230      1.0  0.67965  0.19640  0.51851  1.0000
  I   I231      1.0  0.26607  0.33726  0.09922  1.0000
  I   I232      1.0  0.13256  0.59935  0.06089  1.0000
  I   I233      1.0  0.58915  0.61810  0.33694  1.0000
  I   I234      1.0  0.27523  0.76024  0.38691  1.0000
  I   I235      1.0  0.10988  0.01759  0.51321  1.0000
  I   I236      1.0  0.78232  0.67127  0.09769  1.0000
  I   I237      1.0  0.76975  0.38560  0.46929  1.0000
  I   I238      1.0  0.84538  0.01617  0.44230  1.0000
  I   I239      1.0  0.55005  0.24882  0.04404  1.0000
  I   I240      1.0  0.41761  0.52778  0.12170  1.0000
  I   I241      1.0  0.98667  0.79651  0.66814  1.0000
  I   I242      1.0  0.77225  0.09892  0.68145  1.0000
  I   I243      1.0  0.74304  0.87531  0.75201  1.0000
  I   I244      1.0  0.45807  0.50211  0.36255  1.0000
  I   I245      1.0  0.08987  0.72796  0.30685  1.0000
  I   I246      1.0  0.31528  0.98447  0.10348  1.0000
  I   I247      1.0  0.04959  0.85127  0.90394  1.0000
  I   I248      1.0  0.22237  0.68676  0.26528  1.0000
  I   I249      1.0  0.75862  0.18622  0.27775  1.0000
  I   I250      1.0  0.63550  0.14267  0.37754  1.0000
  I   I251      1.0  0.04307  0.75765  0.75775  1.0000
  I   I252      1.0  0.49933  0.72860  0.05831  1.0000
  I   I253      1.0  0.34006  0.24323  0.57698  1.0000
  I   I254      1.0  0.07901  0.21142  0.92453  1.0000
  I   I255      1.0  0.20885  0.84029  0.82908  1.0000
  I   I256      1.0  0.98175  0.17040  0.61785  1.0000
  I   I257      1.0  0.10124  0.43701  0.09461  1.0000
  I   I258      1.0  0.00280  0.45129  0.12706  1.0000
  I   I259      1.0  0.69622  0.84522  0.44993  1.0000
  I   I260      1.0  0.51599  0.99215  0.98195  1.0000
  I   I261      1.0  0.25450  0.52509  0.76038  1.0000
  I   I262      1.0  0.51077  0.96289  0.29334  1.0000
  I   I263      1.0  0.49805  0.87587  0.78263  1.0000
  I   I264      1.0  0.42871  0.04923  0.63736  1.0000
  I   I265      1.0  0.14048  0.33166  0.40878  1.0000
  I   I266      1.0  0.24916  0.30266  0.83685  1.0000
  I   I267      1.0  0.41251  0.57997  0.65185  1.0000
  I   I268      1.0  0.52580  0.66059  0.73196  1.0000
  I   I269      1.0  0.96358  0.30850  0.49732  1.0000
  I   I270      1.0  0.77248  0.46300  0.91160  1.0000
  I   I271      1.0  0.80467  0.38926  0.26352  1.0000
  I   I272      1.0  0.92072  0.99006  0.02585  1.0000
  I   I273      1.0  0.34072  0.85056  0.55559  1.0000
  I   I274      1.0  0.92269  0.65133  0.61219  1.0000
  I   I275      1.0  0.65572  0.40370  0.89965  1.0000
  I   I276      1.0  0.01920  0.45651  0.75346  1.0000
  I   I277      1.0  0.13469  0.15869  0.60368  1.0000
  I   I278      1.0  0.60289  0.21914  0.55673  1.0000
  I   I279      1.0  0.29370  0.28711  0.97449  1.0000
  I   I280      1.0  0.06857  0.56617  0.25667  1.0000
  I   I281      1.0  0.64457  0.58785  0.26133  1.0000
  I   I282      1.0  0.27453  0.81386  0.59171  1.0000
  I   I283      1.0  0.12873  0.95994  0.43695  1.0000
  I   I284      1.0  0.77802  0.62292  0.99361  1.0000
  I   I285      1.0  0.77078  0.41621  0.58285  1.0000
  I   I286      1.0  0.85752  0.02834  0.31936  1.0000
  I   I287      1.0  0.59699  0.21669  0.94286  1.0000
  I   I288      1.0  0.48411  0.56561  0.01570  1.0000
  I   I289      1.0  0.96603  0.79458  0.81670  1.0000
  I   I290      1.0  0.55523  0.10467  0.94217  1.0000
  I   I291      1.0  0.80643  0.97053  0.56422  1.0000
  I   I292      1.0  0.44320  0.40173  0.25113  1.0000
  I   I293      1.0  0.96829  0.83225  0.17835  1.0000
  I   I294      1.0  0.29025  0.06571  0.22731  1.0000
  I   I295      1.0  0.04279  0.91297  0.00155  1.0000
  I   I296      1.0  0.25781  0.64344  0.36340  1.0000
  I   I297      1.0  0.74800  0.21335  0.14891  1.0000
  I   I298      1.0  0.07467  0.91072  0.53370  1.0000
  I   I299      1.0  0.67614  0.08700  0.47674  1.0000
  I   I300      1.0  0.57276  0.67047  0.10318  1.0000
  I   I301      1.0  0.21537  0.87255  0.99089  1.0000
  I   I302      1.0  0.39512  0.27346  0.57235  1.0000
  I   I303      1.0  0.07961  0.21702  0.04960  1.0000
  I   I304      1.0  0.04832  0.43339  0.39650  1.0000
  I   I305      1.0  0.91690  0.09054  0.63894  1.0000
  I   I306      1.0  0.49553  0.33457  0.85705  1.0000
  I   I307      1.0  0.67200  0.86461  0.32101  1.0000
  I   I308      1.0  0.51991  0.04271  0.12791  1.0000
  I   I309      1.0  0.31947  0.49782  0.71174  1.0000
  I   I310      1.0  0.52025  0.97625  0.52153  1.0000
  I   I311      1.0  0.38400  0.89844  0.83827  1.0000
  I   I312      1.0  0.98395  0.83700  0.50776  1.0000
  I   I313      1.0  0.53188  0.52101  0.73024  1.0000
  I   I314      1.0  0.27613  0.26298  0.34765  1.0000
  I   I315      1.0  0.27932  0.30842  0.71824  1.0000
  I   I316      1.0  0.73567  0.49922  0.80799  1.0000
  I   I317      1.0  0.58904  0.68190  0.66237  1.0000
  I   I318      1.0  0.98817  0.33902  0.39846  1.0000
  I   I319      1.0  0.39551  0.84865  0.62422  1.0000
  I   I320      1.0  0.85509  0.40878  0.32379  1.0000
  I   I321      1.0  0.87158  0.03939  0.92586  1.0000
  I   I322      1.0  0.86446  0.70764  0.61108  1.0000
  I   I323      1.0  0.63284  0.45735  0.78037  1.0000
  I   I324      1.0  0.92663  0.56934  0.66658  1.0000
  I   I325      1.0  0.05481  0.29390  0.55010  1.0000
  I   I326      1.0  0.54416  0.31371  0.56658  1.0000
  I   I327      1.0  0.25066  0.27857  0.06947  1.0000
  I   I328      1.0  0.09260  0.49321  0.19913  1.0000
  I   I329      1.0  0.65418  0.60228  0.39842  1.0000
  I   I330      1.0  0.32632  0.79538  0.48092  1.0000
  I   I331      1.0  0.65739  0.40052  0.65315  1.0000
  I   I332      1.0  0.16854  0.95487  0.54152  1.0000
  I   I333      1.0  0.74413  0.77762  0.97324  1.0000
  I   I334      1.0  0.48128  0.46145  0.18366  1.0000
  I   I335      1.0  0.88870  0.02967  0.55620  1.0000
  I   I336      1.0  0.62597  0.25837  0.14633  1.0000
  I   I337      1.0  0.92684  0.89359  0.85888  1.0000
  I   I338      1.0  0.55509  0.16291  0.02808  1.0000
  I   I339      1.0  0.75710  0.96353  0.65714  1.0000
  I   I340      1.0  0.39803  0.45639  0.35839  1.0000
  I   I341      1.0  0.00840  0.76171  0.22915  1.0000
  I   I342      1.0  0.22602  0.12681  0.17999  1.0000
  I   I343      1.0  0.08232  0.82140  0.77665  1.0000
  I   I344      1.0  0.19475  0.63161  0.23747  1.0000
  I   I345      1.0  0.77746  0.26957  0.16352  1.0000
  I   I346      1.0  0.06086  0.94161  0.65187  1.0000
  I   I347      1.0  0.65914  0.15799  0.47728  1.0000
  I   I348      1.0  0.52017  0.76857  0.15140  1.0000
  I   I349      1.0  0.15056  0.91506  0.90541  1.0000
  I   I350      1.0  0.41640  0.20437  0.63167  1.0000
  I   I351      1.0  0.03008  0.31597  0.10272  1.0000
  I   I352      1.0  0.98558  0.51182  0.18689  1.0000
  I   I353      1.0  0.92794  0.22369  0.58254  1.0000
  I   I354      1.0  0.55376  0.34593  0.77748  1.0000
  I   I355      1.0  0.70173  0.79344  0.26284  1.0000
  I   I356      1.0  0.49283  0.99865  0.12128  1.0000
  I   I357      1.0  0.33807  0.44549  0.82418  1.0000
  I   I358      1.0  0.44784  0.02448  0.45974  1.0000
  I   I359      1.0  0.39663  0.82329  0.82450  1.0000
  I   I360      1.0  0.03496  0.79733  0.41273  1.0000
  I   I361      1.0  0.51246  0.47137  0.79211  1.0000
  I   I362      1.0  0.28498  0.23715  0.47539  1.0000
  I   I363      1.0  0.19272  0.37763  0.80872  1.0000
  I   I364      1.0  0.72235  0.56833  0.84863  1.0000
  I   I365      1.0  0.62915  0.56610  0.77812  1.0000
  I   I366      1.0  0.93469  0.32082  0.37196  1.0000
  I   I367      1.0  0.40328  0.83382  0.48108  1.0000
  I   I368      1.0  0.71626  0.46636  0.33790  1.0000
  I   I369      1.0  0.91945  0.92781  0.07287  1.0000
  I   I370      1.0  0.93993  0.69669  0.41545  1.0000
  I   I371      1.0  0.69844  0.44327  0.84291  1.0000
  I   I372      1.0  0.95945  0.44315  0.75880  1.0000
  I   I373      1.0  0.07670  0.23312  0.72676  1.0000
  I   I374      1.0  0.61025  0.27121  0.48864  1.0000
  I   I375      1.0  0.33889  0.28715  0.10096  1.0000
  I   I376      1.0  0.07634  0.59272  0.14220  1.0000
  I   I377      1.0  0.64689  0.65303  0.27805  1.0000
  I   I378      1.0  0.34550  0.73467  0.42208  1.0000
  I   I379      1.0  0.73251  0.36943  0.68503  1.0000
  I   I380      1.0  0.00957  0.06243  0.95114  1.0000
  I   I381      1.0  0.71550  0.67056  0.03396  1.0000
  I   I382      1.0  0.51259  0.47913  0.06023  1.0000
  I   I383      1.0  0.92054  0.99270  0.38533  1.0000
  I   I384      1.0  0.64555  0.21317  0.03596  1.0000
