data_image0
_chemical_formula_structural       Ti96I384
_chemical_formula_sum              "Ti96 I384"
_cell_length_a       35.85
_cell_length_b       35.4155
_cell_length_c       22.1653
_cell_angle_alpha    88.7757
_cell_angle_beta     88.7757
_cell_angle_gamma    62.1586

_space_group_name_H-M_alt    "P 1"
_space_group_IT_number       1

loop_
  _space_group_symop_operation_xyz
  'x, y, z'

loop_
  _atom_site_type_symbol
  _atom_site_label
  _atom_site_symmetry_multiplicity
  _atom_site_fract_x
  _atom_site_fract_y
  _atom_site_fract_z
  _atom_site_occupancy
  Ti  Ti1       1.0  0.15560  0.09786  0.24544  1.0000
  Ti  Ti2       1.0  0.16201  0.08055  0.58802  1.0000
  Ti  Ti3       1.0  0.16015  0.08401  0.91968  1.0000
  Ti  Ti4       1.0  0.15715  0.34073  0.25257  1.0000
  Ti  Ti5       1.0  0.15940  0.33516  0.58137  1.0000
  Ti  Ti6       1.0  0.15019  0.33769  0.92473  1.0000
  Ti  Ti7       1.0  0.15079  0.58877  0.23214  1.0000
  Ti  Ti8       1.0  0.14910  0.60407  0.55545  1.0000
  Ti  Ti9       1.0  0.15316  0.58821  0.89012  1.0000
  Ti  Ti10      1.0  0.15696  0.84502  0.24651  1.0000
  Ti  Ti11      1.0  0.15162  0.84306  0.57743  1.0000
  Ti  Ti12      1.0  0.16783  0.83918  0.92212  1.0000
  Ti  Ti13      1.0  0.40204  0.09914  0.25636  1.0000
  Ti  Ti14      1.0  0.40580  0.10074  0.60252  1.0000
  Ti  Ti15      1.0  0.39907  0.09763  0.92274  1.0000
  Ti  Ti16      1.0  0.42104  0.32477  0.23893  1.0000
  Ti  Ti17      1.0  0.42678  0.33907  0.57820  1.0000
  Ti  Ti18      1.0  0.43350  0.32527  0.91172  1.0000
  Ti  Ti19      1.0  0.41848  0.59315  0.25394  1.0000
  Ti  Ti20      1.0  0.40866  0.59668  0.58609  1.0000
  Ti  Ti21      1.0  0.41801  0.57762  0.92493  1.0000
  Ti  Ti22      1.0  0.39866  0.84609  0.23996  1.0000
  Ti  Ti23      1.0  0.38963  0.85136  0.58306  1.0000
  Ti  Ti24      1.0  0.40493  0.84618  0.91453  1.0000
  Ti  Ti25      1.0  0.65821  0.09031  0.24790  1.0000
  Ti  Ti26      1.0  0.65753  0.08320  0.57005  1.0000
  Ti  Ti27      1.0  0.65946  0.08641  0.90755  1.0000
  Ti  Ti28      1.0  0.65912  0.33768  0.25317  1.0000
  Ti  Ti29      1.0  0.67120  0.34493  0.58032  1.0000
  Ti  Ti30      1.0  0.66017  0.33976  0.92849  1.0000
  Ti  Ti31      1.0  0.64083  0.60138  0.27009  1.0000
  Ti  Ti32      1.0  0.63829  0.60195  0.60641  1.0000
  Ti  Ti33      1.0  0.64223  0.60196  0.92835  1.0000
  Ti  Ti34      1.0  0.66788  0.84042  0.24888  1.0000
  Ti  Ti35      1.0  0.67481  0.83629  0.58499  1.0000
  Ti  Ti36      1.0  0.67827  0.83735  0.91195  1.0000
  Ti  Ti37      1.0  0.89645  0.10220  0.26758  1.0000
  Ti  Ti38      1.0  0.90905  0.10226  0.61230  1.0000
  Ti  Ti39      1.0  0.91123  0.08965  0.94203  1.0000
  Ti  Ti40      1.0  0.90092  0.34292  0.24416  1.0000
  Ti  Ti41      1.0  0.91542  0.34136  0.57653  1.0000
  Ti  Ti42      1.0  0.91338  0.33250  0.90942  1.0000
  Ti  Ti43      1.0  0.90431  0.59005  0.24096  1.0000
  Ti  Ti44      1.0  0.90788  0.58297  0.59043  1.0000
  Ti  Ti45      1.0  0.91624  0.59411  0.91649  1.0000
  Ti  Ti46      1.0  0.90885  0.84172  0.24276  1.0000
  Ti  Ti47      1.0  0.90859  0.84000  0.58470  1.0000
  Ti  Ti48      1.0  0.89767  0.84318  0.90470  1.0000
  Ti  Ti49      1.0  0.09294  0.15821  0.08216  1.0000
  Ti  Ti50      1.0  0.09292  0.15258  0.41788  1.0000
  Ti  Ti51      1.0  0.09296  0.15263  0.75029  1.0000
  Ti  Ti52      1.0  0.08523  0.40888  0.08898  1.0000
  Ti  Ti53      1.0  0.09310  0.40455  0.41822  1.0000
  Ti  Ti54      1.0  0.09828  0.40666  0.75473  1.0000
  Ti  Ti55      1.0  0.08309  0.65904  0.05886  1.0000
  Ti  Ti56      1.0  0.08400  0.66501  0.39416  1.0000
  Ti  Ti57      1.0  0.08520  0.66650  0.73068  1.0000
  Ti  Ti58      1.0  0.09724  0.89901  0.08515  1.0000
  Ti  Ti59      1.0  0.08401  0.90167  0.41076  1.0000
  Ti  Ti60      1.0  0.08858  0.89676  0.75316  1.0000
  Ti  Ti61      1.0  0.34027  0.16452  0.08398  1.0000
  Ti  Ti62      1.0  0.34380  0.15710  0.41918  1.0000
  Ti  Ti63      1.0  0.33652  0.16425  0.75696  1.0000
  Ti  Ti64      1.0  0.35581  0.40355  0.08018  1.0000
  Ti  Ti65      1.0  0.36324  0.39515  0.40983  1.0000
  Ti  Ti66      1.0  0.35525  0.39304  0.75688  1.0000
  Ti  Ti67      1.0  0.35106  0.65619  0.08724  1.0000
  Ti  Ti68      1.0  0.34476  0.65906  0.41977  1.0000
  Ti  Ti69      1.0  0.34605  0.66220  0.74735  1.0000
  Ti  Ti70      1.0  0.32671  0.92218  0.07620  1.0000
  Ti  Ti71      1.0  0.32871  0.92112  0.40483  1.0000
  Ti  Ti72      1.0  0.33091  0.92692  0.75566  1.0000
  Ti  Ti73      1.0  0.59015  0.15125  0.07705  1.0000
  Ti  Ti74      1.0  0.58737  0.16380  0.40802  1.0000
  Ti  Ti75      1.0  0.59308  0.15013  0.74709  1.0000
  Ti  Ti76      1.0  0.59144  0.41120  0.08128  1.0000
  Ti  Ti77      1.0  0.59585  0.40819  0.40607  1.0000
  Ti  Ti78      1.0  0.60625  0.40542  0.74463  1.0000
  Ti  Ti79      1.0  0.57672  0.66354  0.09933  1.0000
  Ti  Ti80      1.0  0.57261  0.66971  0.43102  1.0000
  Ti  Ti81      1.0  0.57646  0.67806  0.76948  1.0000
  Ti  Ti82      1.0  0.60759  0.89510  0.08032  1.0000
  Ti  Ti83      1.0  0.60951  0.89299  0.41875  1.0000
  Ti  Ti84      1.0  0.60342  0.89524  0.74517  1.0000
  Ti  Ti85      1.0  0.84339  0.16371  0.10103  1.0000
  Ti  Ti86      1.0  0.84146  0.16795  0.43764  1.0000
  Ti  Ti87      1.0  0.83903  0.15343  0.77306  1.0000
  Ti  Ti88      1.0  0.83587  0.40412  0.07490  1.0000
  Ti  Ti89      1.0  0.84253  0.40624  0.41262  1.0000
  Ti  Ti90      1.0  0.84002  0.40215  0.73769  1.0000
  Ti  Ti91      1.0  0.84375  0.64839  0.07492  1.0000
  Ti  Ti92      1.0  0.84618  0.64228  0.42258  1.0000
  Ti  Ti93      1.0  0.84175  0.65344  0.75383  1.0000
  Ti  Ti94      1.0  0.83990  0.92013  0.07518  1.0000
  Ti  Ti95      1.0  0.84669  0.90992  0.41370  1.0000
  Ti  Ti96      1.0  0.83574  0.92020  0.74544  1.0000
  I   I1        1.0  0.06946  0.13098  0.30192  1.0000
  I   I2        1.0  0.07644  0.12888  0.63714  1.0000
  I   I3        1.0  0.07735  0.12450  0.97670  1.0000
  I   I4        1.0  0.07121  0.37395  0.31502  1.0000
  I   I5        1.0  0.07787  0.38324  0.64137  1.0000
  I   I6        1.0  0.06543  0.38055  0.98818  1.0000
  I   I7        1.0  0.06704  0.63496  0.29204  1.0000
  I   I8        1.0  0.05949  0.64870  0.62425  1.0000
  I   I9        1.0  0.06459  0.63914  0.95530  1.0000
  I   I10       1.0  0.07632  0.86525  0.31010  1.0000
  I   I11       1.0  0.07808  0.85942  0.65532  1.0000
  I   I12       1.0  0.09297  0.84811  0.98842  1.0000
  I   I13       1.0  0.32155  0.12914  0.32555  1.0000
  I   I14       1.0  0.32262  0.12471  0.65548  1.0000
  I   I15       1.0  0.31876  0.13800  0.97708  1.0000
  I   I16       1.0  0.34496  0.35619  0.31765  1.0000
  I   I17       1.0  0.34366  0.36700  0.63907  1.0000
  I   I18       1.0  0.34783  0.36582  0.98116  1.0000
  I   I19       1.0  0.34019  0.60849  0.31706  1.0000
  I   I20       1.0  0.33105  0.62072  0.64328  1.0000
  I   I21       1.0  0.33921  0.61210  0.98941  1.0000
  I   I22       1.0  0.31257  0.88535  0.30277  1.0000
  I   I23       1.0  0.30880  0.90377  0.64450  1.0000
  I   I24       1.0  0.31308  0.89379  0.96734  1.0000
  I   I25       1.0  0.58085  0.11984  0.31185  1.0000
  I   I26       1.0  0.57698  0.11552  0.63553  1.0000
  I   I27       1.0  0.57653  0.12030  0.97084  1.0000
  I   I28       1.0  0.57130  0.38084  0.30375  1.0000
  I   I29       1.0  0.58261  0.38108  0.64179  1.0000
  I   I30       1.0  0.57681  0.38518  0.97493  1.0000
  I   I31       1.0  0.55596  0.64379  0.33010  1.0000
  I   I32       1.0  0.55457  0.63915  0.67083  1.0000
  I   I33       1.0  0.55674  0.63577  0.99031  1.0000
  I   I34       1.0  0.59221  0.85610  0.30664  1.0000
  I   I35       1.0  0.59505  0.84938  0.64643  1.0000
  I   I36       1.0  0.59074  0.86372  0.97492  1.0000
  I   I37       1.0  0.81746  0.13434  0.32931  1.0000
  I   I38       1.0  0.82170  0.12452  0.67039  1.0000
  I   I39       1.0  0.83212  0.12082  0.00256  1.0000
  I   I40       1.0  0.82427  0.36734  0.30911  1.0000
  I   I41       1.0  0.82759  0.37345  0.63453  1.0000
  I   I42       1.0  0.82815  0.35984  0.97171  1.0000
  I   I43       1.0  0.82390  0.62263  0.30422  1.0000
  I   I44       1.0  0.82701  0.62100  0.64711  1.0000
  I   I45       1.0  0.82798  0.62253  0.96242  1.0000
  I   I46       1.0  0.82777  0.87677  0.30847  1.0000
  I   I47       1.0  0.82323  0.88728  0.64803  1.0000
  I   I48       1.0  0.82081  0.88450  0.98382  1.0000
  I   I49       1.0  0.12199  0.18076  0.18210  1.0000
  I   I50       1.0  0.13986  0.16396  0.51549  1.0000
  I   I51       1.0  0.12281  0.16944  0.85493  1.0000
  I   I52       1.0  0.11999  0.42159  0.19529  1.0000
  I   I53       1.0  0.13096  0.41691  0.51581  1.0000
  I   I54       1.0  0.12709  0.41962  0.86547  1.0000
  I   I55       1.0  0.12410  0.66757  0.16137  1.0000
  I   I56       1.0  0.12257  0.68583  0.49583  1.0000
  I   I57       1.0  0.12160  0.67077  0.83900  1.0000
  I   I58       1.0  0.11538  0.93456  0.18875  1.0000
  I   I59       1.0  0.10443  0.92479  0.53163  1.0000
  I   I60       1.0  0.12124  0.91581  0.86747  1.0000
  I   I61       1.0  0.36721  0.18168  0.19831  1.0000
  I   I62       1.0  0.37327  0.17952  0.52232  1.0000
  I   I63       1.0  0.36764  0.18215  0.86533  1.0000
  I   I64       1.0  0.39513  0.40853  0.18196  1.0000
  I   I65       1.0  0.40129  0.41828  0.50060  1.0000
  I   I66       1.0  0.39151  0.41126  0.84800  1.0000
  I   I67       1.0  0.37278  0.67793  0.18927  1.0000
  I   I68       1.0  0.36773  0.68775  0.52324  1.0000
  I   I69       1.0  0.37685  0.68086  0.84487  1.0000
  I   I70       1.0  0.36759  0.93319  0.17031  1.0000
  I   I71       1.0  0.36746  0.92765  0.51308  1.0000
  I   I72       1.0  0.37902  0.92940  0.84312  1.0000
  I   I73       1.0  0.62033  0.17291  0.18448  1.0000
  I   I74       1.0  0.62527  0.17219  0.50735  1.0000
  I   I75       1.0  0.62020  0.17021  0.84543  1.0000
  I   I76       1.0  0.62679  0.41902  0.19159  1.0000
  I   I77       1.0  0.63088  0.42056  0.51605  1.0000
  I   I78       1.0  0.63132  0.42628  0.85609  1.0000
  I   I79       1.0  0.61316  0.67687  0.19712  1.0000
  I   I80       1.0  0.60726  0.68708  0.53587  1.0000
  I   I81       1.0  0.60476  0.69093  0.87298  1.0000
  I   I82       1.0  0.62561  0.92493  0.18713  1.0000
  I   I83       1.0  0.63815  0.91901  0.52190  1.0000
  I   I84       1.0  0.63855  0.91476  0.83449  1.0000
  I   I85       1.0  0.87395  0.18514  0.21097  1.0000
  I   I86       1.0  0.87356  0.18529  0.54426  1.0000
  I   I87       1.0  0.86958  0.17511  0.87114  1.0000
  I   I88       1.0  0.85976  0.42511  0.17638  1.0000
  I   I89       1.0  0.87659  0.42511  0.51499  1.0000
  I   I90       1.0  0.87472  0.41283  0.85120  1.0000
  I   I91       1.0  0.86607  0.67669  0.18314  1.0000
  I   I92       1.0  0.87874  0.66380  0.52569  1.0000
  I   I93       1.0  0.87249  0.67463  0.84733  1.0000
  I   I94       1.0  0.88836  0.92053  0.17610  1.0000
  I   I95       1.0  0.88166  0.91975  0.51404  1.0000
  I   I96       1.0  0.87547  0.93035  0.84605  1.0000
  I   I97       1.0  0.17478  0.12586  0.01116  1.0000
  I   I98       1.0  0.17453  0.12555  0.35467  1.0000
  I   I99       1.0  0.17453  0.11032  0.69059  1.0000
  I   I100      1.0  0.17326  0.36903  0.02231  1.0000
  I   I101      1.0  0.17581  0.36442  0.36559  1.0000
  I   I102      1.0  0.18280  0.35498  0.69872  1.0000
  I   I103      1.0  0.16768  0.61557  0.00035  1.0000
  I   I104      1.0  0.16876  0.61642  0.33469  1.0000
  I   I105      1.0  0.16868  0.62488  0.66318  1.0000
  I   I106      1.0  0.17822  0.87448  0.02174  1.0000
  I   I107      1.0  0.16225  0.88674  0.34690  1.0000
  I   I108      1.0  0.16723  0.87811  0.68347  1.0000
  I   I109      1.0  0.42052  0.13342  0.02600  1.0000
  I   I110      1.0  0.42305  0.13461  0.34798  1.0000
  I   I111      1.0  0.42061  0.13478  0.70102  1.0000
  I   I112      1.0  0.44297  0.36896  0.01601  1.0000
  I   I113      1.0  0.44383  0.35824  0.33882  1.0000
  I   I114      1.0  0.43546  0.37652  0.67684  1.0000
  I   I115      1.0  0.43648  0.61789  0.02037  1.0000
  I   I116      1.0  0.42494  0.63144  0.35096  1.0000
  I   I117      1.0  0.42558  0.63494  0.68713  1.0000
  I   I118      1.0  0.40788  0.89144  0.01299  1.0000
  I   I119      1.0  0.41476  0.88108  0.34206  1.0000
  I   I120      1.0  0.40636  0.89219  0.67107  1.0000
  I   I121      1.0  0.66864  0.12859  0.01135  1.0000
  I   I122      1.0  0.67084  0.13460  0.33513  1.0000
  I   I123      1.0  0.67035  0.12454  0.67274  1.0000
  I   I124      1.0  0.67588  0.37201  0.02464  1.0000
  I   I125      1.0  0.68641  0.36095  0.35785  1.0000
  I   I126      1.0  0.69003  0.36956  0.68343  1.0000
  I   I127      1.0  0.65770  0.62621  0.04395  1.0000
  I   I128      1.0  0.64877  0.64980  0.36778  1.0000
  I   I129      1.0  0.65581  0.64220  0.71024  1.0000
  I   I130      1.0  0.68817  0.87517  0.01483  1.0000
  I   I131      1.0  0.68290  0.87624  0.35611  1.0000
  I   I132      1.0  0.68397  0.87617  0.68301  1.0000
  I   I133      1.0  0.92633  0.12930  0.03796  1.0000
  I   I134      1.0  0.92059  0.12128  0.38402  1.0000
  I   I135      1.0  0.92602  0.13044  0.71269  1.0000
  I   I136      1.0  0.91770  0.37171  0.01293  1.0000
  I   I137      1.0  0.92344  0.37246  0.34609  1.0000
  I   I138      1.0  0.92470  0.37855  0.68200  1.0000
  I   I139      1.0  0.92286  0.63734  0.01554  1.0000
  I   I140      1.0  0.92203  0.61646  0.35840  1.0000
  I   I141      1.0  0.92727  0.62074  0.68029  1.0000
  I   I142      1.0  0.91850  0.87575  0.00494  1.0000
  I   I143      1.0  0.92651  0.86954  0.34791  1.0000
  I   I144      1.0  0.92254  0.88010  0.68262  1.0000
  I   I145      1.0  0.13411  0.07687  0.13948  1.0000
  I   I146      1.0  0.11669  0.07381  0.47791  1.0000
  I   I147      1.0  0.12717  0.07064  0.81067  1.0000
  I   I148      1.0  0.12281  0.32656  0.14671  1.0000
  I   I149      1.0  0.13134  0.31417  0.48436  1.0000
  I   I150      1.0  0.12123  0.32319  0.81531  1.0000
  I   I151      1.0  0.10982  0.57700  0.12904  1.0000
  I   I152      1.0  0.11713  0.58541  0.45458  1.0000
  I   I153      1.0  0.11307  0.57962  0.79226  1.0000
  I   I154      1.0  0.13727  0.81432  0.13830  1.0000
  I   I155      1.0  0.12672  0.81783  0.47665  1.0000
  I   I156      1.0  0.13804  0.81596  0.80642  1.0000
  I   I157      1.0  0.36498  0.08745  0.14411  1.0000
  I   I158      1.0  0.37866  0.08196  0.49032  1.0000
  I   I159      1.0  0.37498  0.07970  0.81785  1.0000
  I   I160      1.0  0.37551  0.32101  0.15016  1.0000
  I   I161      1.0  0.39132  0.31469  0.48494  1.0000
  I   I162      1.0  0.39944  0.30748  0.81053  1.0000
  I   I163      1.0  0.37916  0.57555  0.14826  1.0000
  I   I164      1.0  0.38687  0.57460  0.47187  1.0000
  I   I165      1.0  0.38963  0.56602  0.81578  1.0000
  I   I166      1.0  0.37281  0.83522  0.13288  1.0000
  I   I167      1.0  0.35995  0.83651  0.45900  1.0000
  I   I168      1.0  0.36852  0.83687  0.80915  1.0000
  I   I169      1.0  0.62856  0.07232  0.13909  1.0000
  I   I170      1.0  0.62698  0.06787  0.47283  1.0000
  I   I171      1.0  0.63613  0.06564  0.80011  1.0000
  I   I172      1.0  0.62330  0.32473  0.15325  1.0000
  I   I173      1.0  0.62456  0.33286  0.48204  1.0000
  I   I174      1.0  0.63256  0.32292  0.81169  1.0000
  I   I175      1.0  0.61114  0.57867  0.16772  1.0000
  I   I176      1.0  0.60005  0.59360  0.50300  1.0000
  I   I177      1.0  0.60727  0.59000  0.82997  1.0000
  I   I178      1.0  0.64490  0.81327  0.14893  1.0000
  I   I179      1.0  0.64443  0.80961  0.47374  1.0000
  I   I180      1.0  0.64660  0.81434  0.81093  1.0000
  I   I181      1.0  0.86539  0.08568  0.16801  1.0000
  I   I182      1.0  0.87417  0.08710  0.51191  1.0000
  I   I183      1.0  0.87687  0.07004  0.84392  1.0000
  I   I184      1.0  0.87269  0.31874  0.14326  1.0000
  I   I185      1.0  0.87446  0.32235  0.48572  1.0000
  I   I186      1.0  0.88136  0.31876  0.80070  1.0000
  I   I187      1.0  0.88067  0.56695  0.14520  1.0000
  I   I188      1.0  0.87455  0.56373  0.48121  1.0000
  I   I189      1.0  0.88353  0.56663  0.81934  1.0000
  I   I190      1.0  0.86636  0.83982  0.14293  1.0000
  I   I191      1.0  0.86698  0.82769  0.48873  1.0000
  I   I192      1.0  0.86746  0.83421  0.80143  1.0000
  I   I193      1.0  0.22976  0.08534  0.20333  1.0000
  I   I194      1.0  0.23870  0.06031  0.55083  1.0000
  I   I195      1.0  0.23082  0.07856  0.88057  1.0000
  I   I196      1.0  0.23542  0.32543  0.21307  1.0000
  I   I197      1.0  0.23528  0.31502  0.54130  1.0000
  I   I198      1.0  0.22455  0.31096  0.88300  1.0000
  I   I199      1.0  0.22526  0.55823  0.18015  1.0000
  I   I200      1.0  0.22365  0.58362  0.51107  1.0000
  I   I201      1.0  0.22732  0.57434  0.85395  1.0000
  I   I202      1.0  0.22557  0.83499  0.19580  1.0000
  I   I203      1.0  0.22017  0.84315  0.53210  1.0000
  I   I204      1.0  0.23865  0.82796  0.87854  1.0000
  I   I205      1.0  0.47489  0.06621  0.19944  1.0000
  I   I206      1.0  0.48343  0.07788  0.56221  1.0000
  I   I207      1.0  0.47707  0.07287  0.88615  1.0000
  I   I208      1.0  0.49526  0.29316  0.18243  1.0000
  I   I209      1.0  0.49507  0.30663  0.51264  1.0000
  I   I210      1.0  0.50309  0.30811  0.86162  1.0000
  I   I211      1.0  0.49261  0.57499  0.20403  1.0000
  I   I212      1.0  0.47590  0.59135  0.52806  1.0000
  I   I213      1.0  0.48407  0.56473  0.85905  1.0000
  I   I214      1.0  0.47550  0.81573  0.20292  1.0000
  I   I215      1.0  0.46525  0.82112  0.54021  1.0000
  I   I216      1.0  0.47991  0.82375  0.87225  1.0000
  I   I217      1.0  0.73104  0.07251  0.18830  1.0000
  I   I218      1.0  0.73143  0.06935  0.51968  1.0000
  I   I219      1.0  0.73339  0.07332  0.87306  1.0000
  I   I220      1.0  0.73734  0.31705  0.21505  1.0000
  I   I221      1.0  0.74406  0.32686  0.53260  1.0000
  I   I222      1.0  0.73808  0.30755  0.89061  1.0000
  I   I223      1.0  0.72126  0.57911  0.22819  1.0000
  I   I224      1.0  0.71093  0.58692  0.55669  1.0000
  I   I225      1.0  0.71153  0.58755  0.87398  1.0000
  I   I226      1.0  0.73660  0.83514  0.19662  1.0000
  I   I227      1.0  0.74331  0.82070  0.52782  1.0000
  I   I228      1.0  0.75255  0.81246  0.86781  1.0000
  I   I229      1.0  0.97396  0.07581  0.23961  1.0000
  I   I230      1.0  0.98516  0.07934  0.56814  1.0000
  I   I231      1.0  0.98506  0.07233  0.89665  1.0000
  I   I232      1.0  0.97234  0.33055  0.18945  1.0000
  I   I233      1.0  0.98760  0.32017  0.53095  1.0000
  I   I234      1.0  0.98329  0.32515  0.86570  1.0000
  I   I235      1.0  0.97655  0.57974  0.20167  1.0000
  I   I236      1.0  0.98625  0.55222  0.54866  1.0000
  I   I237      1.0  0.98194  0.58198  0.85209  1.0000
  I   I238      1.0  0.98959  0.80785  0.21374  1.0000
  I   I239      1.0  0.98311  0.80615  0.53299  1.0000
  I   I240      1.0  0.97953  0.79960  0.86976  1.0000
  I   I241      1.0  0.17535  0.02294  0.28409  1.0000
  I   I242      1.0  0.17216  0.00905  0.63425  1.0000
  I   I243      1.0  0.17797  0.00988  0.96243  1.0000
  I   I244      1.0  0.17991  0.26327  0.29134  1.0000
  I   I245      1.0  0.17911  0.26409  0.64080  1.0000
  I   I246      1.0  0.15971  0.26731  0.97509  1.0000
  I   I247      1.0  0.16049  0.51499  0.28492  1.0000
  I   I248      1.0  0.15937  0.53002  0.60249  1.0000
  I   I249      1.0  0.16873  0.51332  0.93586  1.0000
  I   I250      1.0  0.18520  0.76689  0.30585  1.0000
  I   I251      1.0  0.19783  0.76027  0.60592  1.0000
  I   I252      1.0  0.19757  0.75613  0.95746  1.0000
  I   I253      1.0  0.42456  0.02822  0.31333  1.0000
  I   I254      1.0  0.42745  0.02468  0.64288  1.0000
  I   I255      1.0  0.41636  0.02459  0.96908  1.0000
  I   I256      1.0  0.43313  0.25593  0.29769  1.0000
  I   I257      1.0  0.44301  0.26805  0.63135  1.0000
  I   I258      1.0  0.44857  0.25287  0.95557  1.0000
  I   I259      1.0  0.44485  0.51234  0.28219  1.0000
  I   I260      1.0  0.44108  0.51816  0.62877  1.0000
  I   I261      1.0  0.44591  0.50362  0.97067  1.0000
  I   I262      1.0  0.41187  0.77795  0.29754  1.0000
  I   I263      1.0  0.39936  0.78157  0.63537  1.0000
  I   I264      1.0  0.41465  0.77623  0.95825  1.0000
  I   I265      1.0  0.68783  0.01400  0.29494  1.0000
  I   I266      1.0  0.68589  0.00972  0.61674  1.0000
  I   I267      1.0  0.68754  0.00948  0.95456  1.0000
  I   I268      1.0  0.66795  0.26541  0.30178  1.0000
  I   I269      1.0  0.68547  0.27167  0.63054  1.0000
  I   I270      1.0  0.65629  0.27264  0.96980  1.0000
  I   I271      1.0  0.66679  0.53360  0.34005  1.0000
  I   I272      1.0  0.66882  0.52710  0.65234  1.0000
  I   I273      1.0  0.67020  0.52228  0.96361  1.0000
  I   I274      1.0  0.70619  0.76515  0.29644  1.0000
  I   I275      1.0  0.70062  0.75773  0.61917  1.0000
  I   I276      1.0  0.69942  0.76194  0.96273  1.0000
  I   I277      1.0  0.91743  0.02468  0.30718  1.0000
  I   I278      1.0  0.93340  0.02720  0.65786  1.0000
  I   I279      1.0  0.94151  0.01451  0.98972  1.0000
  I   I280      1.0  0.92649  0.26289  0.28964  1.0000
  I   I281      1.0  0.94292  0.26764  0.62099  1.0000
  I   I282      1.0  0.92412  0.25904  0.94237  1.0000
  I   I283      1.0  0.92891  0.51264  0.29306  1.0000
  I   I284      1.0  0.91974  0.50948  0.64119  1.0000
  I   I285      1.0  0.94602  0.51823  0.96112  1.0000
  I   I286      1.0  0.91592  0.76759  0.28037  1.0000
  I   I287      1.0  0.92113  0.77222  0.64854  1.0000
  I   I288      1.0  0.90488  0.77345  0.95890  1.0000
  I   I289      1.0  0.02016  0.17394  0.12329  1.0000
  I   I290      1.0  0.01854  0.19304  0.46379  1.0000
  I   I291      1.0  0.02114  0.17171  0.80316  1.0000
  I   I292      1.0  0.01197  0.43399  0.13870  1.0000
  I   I293      1.0  0.02435  0.41679  0.47720  1.0000
  I   I294      1.0  0.02114  0.43995  0.79312  1.0000
  I   I295      1.0  0.01066  0.69266  0.11527  1.0000
  I   I296      1.0  0.01256  0.69072  0.44750  1.0000
  I   I297      1.0  0.01114  0.68493  0.78407  1.0000
  I   I298      1.0  0.02155  0.91759  0.12930  1.0000
  I   I299      1.0  0.01321  0.91453  0.46029  1.0000
  I   I300      1.0  0.01667  0.91211  0.80263  1.0000
  I   I301      1.0  0.26302  0.19132  0.12998  1.0000
  I   I302      1.0  0.27033  0.17701  0.47384  1.0000
  I   I303      1.0  0.26689  0.17864  0.81371  1.0000
  I   I304      1.0  0.28431  0.42680  0.14538  1.0000
  I   I305      1.0  0.29208  0.41929  0.46589  1.0000
  I   I306      1.0  0.28839  0.40389  0.81663  1.0000
  I   I307      1.0  0.27056  0.68532  0.11657  1.0000
  I   I308      1.0  0.27188  0.67050  0.46391  1.0000
  I   I309      1.0  0.28279  0.66428  0.81280  1.0000
  I   I310      1.0  0.25515  0.94182  0.12617  1.0000
  I   I311      1.0  0.25514  0.94597  0.45511  1.0000
  I   I312      1.0  0.26026  0.95230  0.81286  1.0000
  I   I313      1.0  0.51613  0.16941  0.12005  1.0000
  I   I314      1.0  0.51475  0.17645  0.45938  1.0000
  I   I315      1.0  0.51758  0.17142  0.78630  1.0000
  I   I316      1.0  0.51741  0.43284  0.12694  1.0000
  I   I317      1.0  0.52078  0.44178  0.45331  1.0000
  I   I318      1.0  0.53524  0.42133  0.79847  1.0000
  I   I319      1.0  0.50465  0.68230  0.14345  1.0000
  I   I320      1.0  0.49839  0.68923  0.47564  1.0000
  I   I321      1.0  0.49993  0.69942  0.81094  1.0000
  I   I322      1.0  0.53574  0.90611  0.13430  1.0000
  I   I323      1.0  0.53855  0.90719  0.47778  1.0000
  I   I324      1.0  0.53117  0.90629  0.79552  1.0000
  I   I325      1.0  0.76778  0.18489  0.13870  1.0000
  I   I326      1.0  0.76685  0.19430  0.48190  1.0000
  I   I327      1.0  0.76718  0.16769  0.81680  1.0000
  I   I328      1.0  0.76387  0.42101  0.12616  1.0000
  I   I329      1.0  0.76593  0.42848  0.45274  1.0000
  I   I330      1.0  0.77145  0.41623  0.79124  1.0000
  I   I331      1.0  0.76720  0.66897  0.11154  1.0000
  I   I332      1.0  0.76571  0.66606  0.45763  1.0000
  I   I333      1.0  0.76795  0.66570  0.79708  1.0000
  I   I334      1.0  0.76603  0.95078  0.12738  1.0000
  I   I335      1.0  0.76745  0.93382  0.44882  1.0000
  I   I336      1.0  0.76047  0.95489  0.78915  1.0000
  I   I337      1.0  0.06731  0.23637  0.03707  1.0000
  I   I338      1.0  0.08115  0.22328  0.36321  1.0000
  I   I339      1.0  0.07466  0.22892  0.70235  1.0000
  I   I340      1.0  0.07677  0.48293  0.05738  1.0000
  I   I341      1.0  0.07034  0.48133  0.38245  1.0000
  I   I342      1.0  0.09489  0.47322  0.69553  1.0000
  I   I343      1.0  0.07845  0.73205  0.02170  1.0000
  I   I344      1.0  0.06850  0.74107  0.35357  1.0000
  I   I345      1.0  0.06639  0.73999  0.69164  1.0000
  I   I346      1.0  0.07104  0.97303  0.02564  1.0000
  I   I347      1.0  0.05246  0.98334  0.38131  1.0000
  I   I348      1.0  0.06187  0.97959  0.72558  1.0000
  I   I349      1.0  0.32100  0.24140  0.04374  1.0000
  I   I350      1.0  0.32049  0.23154  0.36089  1.0000
  I   I351      1.0  0.30204  0.23703  0.69768  1.0000
  I   I352      1.0  0.33843  0.47483  0.02357  1.0000
  I   I353      1.0  0.33643  0.46682  0.34631  1.0000
  I   I354      1.0  0.31975  0.47491  0.72522  1.0000
  I   I355      1.0  0.33459  0.73302  0.03695  1.0000
  I   I356      1.0  0.31796  0.73640  0.38005  1.0000
  I   I357      1.0  0.30342  0.74195  0.71559  1.0000
  I   I358      1.0  0.31418  0.99830  0.03771  1.0000
  I   I359      1.0  0.31660  0.99120  0.34967  1.0000
  I   I360      1.0  0.31735  0.00240  0.71200  1.0000
  I   I361      1.0  0.57088  0.22884  0.02913  1.0000
  I   I362      1.0  0.56734  0.23598  0.35127  1.0000
  I   I363      1.0  0.56743  0.22953  0.69970  1.0000
  I   I364      1.0  0.57849  0.49319  0.05874  1.0000
  I   I365      1.0  0.57371  0.48344  0.35021  1.0000
  I   I366      1.0  0.58491  0.48350  0.69833  1.0000
  I   I367      1.0  0.56006  0.73932  0.06294  1.0000
  I   I368      1.0  0.55425  0.75165  0.39880  1.0000
  I   I369      1.0  0.55789  0.75014  0.71768  1.0000
  I   I370      1.0  0.57430  0.97229  0.03714  1.0000
  I   I371      1.0  0.57496  0.97238  0.38094  1.0000
  I   I372      1.0  0.57040  0.96684  0.68883  1.0000
  I   I373      1.0  0.82637  0.23625  0.05135  1.0000
  I   I374      1.0  0.82973  0.23929  0.37691  1.0000
  I   I375      1.0  0.81261  0.22916  0.72626  1.0000
  I   I376      1.0  0.81768  0.47467  0.01720  1.0000
  I   I377      1.0  0.82536  0.47828  0.36329  1.0000
  I   I378      1.0  0.82234  0.48080  0.69919  1.0000
  I   I379      1.0  0.81958  0.72634  0.03061  1.0000
  I   I380      1.0  0.81647  0.72389  0.38966  1.0000
  I   I381      1.0  0.81581  0.73086  0.70946  1.0000
  I   I382      1.0  0.83341  0.98888  0.02627  1.0000
  I   I383      1.0  0.82801  0.98241  0.36633  1.0000
  I   I384      1.0  0.83203  0.99112  0.69756  1.0000
