data_image0
_chemical_formula_structural       Ti96I384
_chemical_formula_sum              "Ti96 I384"
_cell_length_a       76.5162
_cell_length_b       76.5916
_cell_length_c       37.4317
_cell_angle_alpha    88.7757
_cell_angle_beta     88.7757
_cell_angle_gamma    62.1586

_space_group_name_H-M_alt    "P 1"
_space_group_IT_number       1

loop_
  _space_group_symop_operation_xyz
  'x, y, z'

loop_
  _atom_site_type_symbol
  _atom_site_label
  _atom_site_symmetry_multiplicity
  _atom_site_fract_x
  _atom_site_fract_y
  _atom_site_fract_z
  _atom_site_occupancy
  Ti  Ti1       1.0  0.85633  0.89207  0.56874  1.0000
  Ti  Ti2       1.0  0.50947  0.74672  0.65008  1.0000
  Ti  Ti3       1.0  0.09528  0.20693  0.56748  1.0000
  Ti  Ti4       1.0  0.19142  0.19385  0.72344  1.0000
  Ti  Ti5       1.0  0.39149  0.01428  0.64239  1.0000
  Ti  Ti6       1.0  0.55785  0.54445  0.05487  1.0000
  Ti  Ti7       1.0  0.93030  0.79075  0.13853  1.0000
  Ti  Ti8       1.0  0.20164  0.96910  0.47420  1.0000
  Ti  Ti9       1.0  0.10027  0.53448  0.63957  1.0000
  Ti  Ti10      1.0  0.55610  0.67497  0.43206  1.0000
  Ti  Ti11      1.0  0.12575  0.89153  0.03491  1.0000
  Ti  Ti12      1.0  0.69698  0.90688  0.07026  1.0000
  Ti  Ti13      1.0  0.93138  0.60740  0.81176  1.0000
  Ti  Ti14      1.0  0.19065  0.22407  0.77336  1.0000
  Ti  Ti15      1.0  0.88909  0.30508  0.11033  1.0000
  Ti  Ti16      1.0  0.19730  0.82477  0.61120  1.0000
  Ti  Ti17      1.0  0.29904  0.57591  0.54309  1.0000
  Ti  Ti18      1.0  0.67057  0.15647  0.86753  1.0000
  Ti  Ti19      1.0  0.62289  0.31559  0.83422  1.0000
  Ti  Ti20      1.0  0.02909  0.72249  0.92551  1.0000
  Ti  Ti21      1.0  0.20994  0.95625  0.56679  1.0000
  Ti  Ti22      1.0  0.56110  0.41582  0.70538  1.0000
  Ti  Ti23      1.0  0.18465  0.57109  0.55617  1.0000
  Ti  Ti24      1.0  0.60125  0.25199  0.53091  1.0000
  Ti  Ti25      1.0  0.72523  0.48015  0.12093  1.0000
  Ti  Ti26      1.0  0.09725  0.74657  0.54686  1.0000
  Ti  Ti27      1.0  0.68653  0.74529  0.00600  1.0000
  Ti  Ti28      1.0  0.45387  0.03759  0.02655  1.0000
  Ti  Ti29      1.0  0.98385  0.06051  0.82393  1.0000
  Ti  Ti30      1.0  0.15133  0.10950  0.22665  1.0000
  Ti  Ti31      1.0  0.78893  0.22043  0.19904  1.0000
  Ti  Ti32      1.0  0.48600  0.74409  0.07167  1.0000
  Ti  Ti33      1.0  0.54455  0.34382  0.99670  1.0000
  Ti  Ti34      1.0  0.76285  0.48461  0.43764  1.0000
  Ti  Ti35      1.0  0.60437  0.85037  0.16440  1.0000
  Ti  Ti36      1.0  0.21883  0.25003  0.56451  1.0000
  Ti  Ti37      1.0  0.17354  0.33965  0.78308  1.0000
  Ti  Ti38      1.0  0.41681  0.41040  0.79990  1.0000
  Ti  Ti39      1.0  0.96064  0.29695  0.60050  1.0000
  Ti  Ti40      1.0  0.58550  0.68478  0.48119  1.0000
  Ti  Ti41      1.0  0.83009  0.67084  0.09711  1.0000
  Ti  Ti42      1.0  0.87203  0.76597  0.51017  1.0000
  Ti  Ti43      1.0  0.08413  0.80537  0.20813  1.0000
  Ti  Ti44      1.0  0.82445  0.31791  0.43902  1.0000
  Ti  Ti45      1.0  0.74425  0.67476  0.36838  1.0000
  Ti  Ti46      1.0  0.83028  0.49728  0.99214  1.0000
  Ti  Ti47      1.0  0.90183  0.98175  0.92617  1.0000
  Ti  Ti48      1.0  0.96847  0.94498  0.50091  1.0000
  Ti  Ti49      1.0  0.02816  0.84034  0.22916  1.0000
  Ti  Ti50      1.0  0.05962  0.41981  0.98262  1.0000
  Ti  Ti51      1.0  0.53046  0.79150  0.67415  1.0000
  Ti  Ti52      1.0  0.44698  0.43316  0.15086  1.0000
  Ti  Ti53      1.0  0.39840  0.67184  0.72438  1.0000
  Ti  Ti54      1.0  0.38585  0.93182  0.87301  1.0000
  Ti  Ti55      1.0  0.51417  0.68647  0.08183  1.0000
  Ti  Ti56      1.0  0.78405  0.93380  0.80666  1.0000
  Ti  Ti57      1.0  0.14131  0.50611  0.66019  1.0000
  Ti  Ti58      1.0  0.40874  0.15662  0.53839  1.0000
  Ti  Ti59      1.0  0.17783  0.84081  0.67998  1.0000
  Ti  Ti60      1.0  0.87175  0.19055  0.98076  1.0000
  Ti  Ti61      1.0  0.66460  0.10217  0.42879  1.0000
  Ti  Ti62      1.0  0.92873  0.57250  0.74379  1.0000
  Ti  Ti63      1.0  0.00804  0.78781  0.93984  1.0000
  Ti  Ti64      1.0  0.69700  0.12875  0.91628  1.0000
  Ti  Ti65      1.0  0.39913  0.29934  0.74539  1.0000
  Ti  Ti66      1.0  0.40336  0.99031  0.01582  1.0000
  Ti  Ti67      1.0  0.31827  0.22994  0.30112  1.0000
  Ti  Ti68      1.0  0.72431  0.12334  0.17582  1.0000
  Ti  Ti69      1.0  0.04546  0.77898  0.54822  1.0000
  Ti  Ti70      1.0  0.27047  0.03657  0.53971  1.0000
  Ti  Ti71      1.0  0.20944  0.61573  0.32140  1.0000
  Ti  Ti72      1.0  0.96103  0.93732  0.93743  1.0000
  Ti  Ti73      1.0  0.64379  0.37778  0.30031  1.0000
  Ti  Ti74      1.0  0.71249  0.46858  0.04050  1.0000
  Ti  Ti75      1.0  0.99433  0.69170  0.23424  1.0000
  Ti  Ti76      1.0  0.56591  0.03787  0.47249  1.0000
  Ti  Ti77      1.0  0.87511  0.27572  0.16927  1.0000
  Ti  Ti78      1.0  0.00570  0.00827  0.76707  1.0000
  Ti  Ti79      1.0  0.44368  0.87115  0.36366  1.0000
  Ti  Ti80      1.0  0.72087  0.82851  0.77732  1.0000
  Ti  Ti81      1.0  0.18018  0.55860  0.45867  1.0000
  Ti  Ti82      1.0  0.69721  0.55298  0.74674  1.0000
  Ti  Ti83      1.0  0.97432  0.47625  0.26771  1.0000
  Ti  Ti84      1.0  0.28472  0.22558  0.52203  1.0000
  Ti  Ti85      1.0  0.18476  0.36664  0.73588  1.0000
  Ti  Ti86      1.0  0.89091  0.81736  0.07254  1.0000
  Ti  Ti87      1.0  0.69164  0.75532  0.32513  1.0000
  Ti  Ti88      1.0  0.14017  0.74805  0.87205  1.0000
  Ti  Ti89      1.0  0.00605  0.59401  0.34854  1.0000
  Ti  Ti90      1.0  0.12314  0.36345  0.97985  1.0000
  Ti  Ti91      1.0  0.73798  0.14692  0.51825  1.0000
  Ti  Ti92      1.0  0.28699  0.56828  0.19810  1.0000
  Ti  Ti93      1.0  0.38423  0.53706  0.70576  1.0000
  Ti  Ti94      1.0  0.99260  0.90445  0.50303  1.0000
  Ti  Ti95      1.0  0.39206  0.18673  0.91917  1.0000
  Ti  Ti96      1.0  0.52271  0.43267  0.75716  1.0000
  I   I1        1.0  0.97748  0.91362  0.99099  1.0000
  I   I2        1.0  0.52342  0.82829  0.67412  1.0000
  I   I3        1.0  0.99798  0.86710  0.27071  1.0000
  I   I4        1.0  0.38243  0.69024  0.66366  1.0000
  I   I5        1.0  0.59065  0.51906  0.03456  1.0000
  I   I6        1.0  0.41214  0.89506  0.85893  1.0000
  I   I7        1.0  0.23511  0.96100  0.52510  1.0000
  I   I8        1.0  0.77346  0.96718  0.78741  1.0000
  I   I9        1.0  0.11307  0.49315  0.66201  1.0000
  I   I10       1.0  0.60406  0.70165  0.45972  1.0000
  I   I11       1.0  0.10279  0.90208  0.09146  1.0000
  I   I12       1.0  0.36958  0.04874  0.67242  1.0000
  I   I13       1.0  0.90816  0.56755  0.79682  1.0000
  I   I14       1.0  0.03239  0.76417  0.88655  1.0000
  I   I15       1.0  0.92296  0.29432  0.08126  1.0000
  I   I16       1.0  0.55817  0.71839  0.50231  1.0000
  I   I17       1.0  0.42662  0.98345  0.95636  1.0000
  I   I18       1.0  0.65550  0.13488  0.90779  1.0000
  I   I19       1.0  0.01009  0.72362  0.87113  1.0000
  I   I20       1.0  0.10111  0.87814  0.00792  1.0000
  I   I21       1.0  0.16119  0.97949  0.45981  1.0000
  I   I22       1.0  0.16636  0.60853  0.58140  1.0000
  I   I23       1.0  0.17391  0.71668  0.85677  1.0000
  I   I24       1.0  0.23516  0.05858  0.51242  1.0000
  I   I25       1.0  0.73847  0.50404  0.08876  1.0000
  I   I26       1.0  0.02355  0.67919  0.19227  1.0000
  I   I27       1.0  0.69185  0.75182  0.93936  1.0000
  I   I28       1.0  0.48269  0.00199  0.05427  1.0000
  I   I29       1.0  0.96555  0.04258  0.79023  1.0000
  I   I30       1.0  0.11603  0.11628  0.24168  1.0000
  I   I31       1.0  0.72844  0.79752  0.73993  1.0000
  I   I32       1.0  0.17725  0.58423  0.40493  1.0000
  I   I33       1.0  0.44417  0.88245  0.43417  1.0000
  I   I34       1.0  0.59511  0.82358  0.14623  1.0000
  I   I35       1.0  0.29483  0.19965  0.47361  1.0000
  I   I36       1.0  0.79249  0.45183  0.42421  1.0000
  I   I37       1.0  0.17793  0.39132  0.67939  1.0000
  I   I38       1.0  0.95480  0.33365  0.62179  1.0000
  I   I39       1.0  0.15277  0.37821  0.77365  1.0000
  I   I40       1.0  0.81214  0.29611  0.48168  1.0000
  I   I41       1.0  0.04521  0.45779  0.98262  1.0000
  I   I42       1.0  0.59096  0.67172  0.54734  1.0000
  I   I43       1.0  0.38120  0.16181  0.58403  1.0000
  I   I44       1.0  0.85869  0.29139  0.41650  1.0000
  I   I45       1.0  0.72597  0.66051  0.32702  1.0000
  I   I46       1.0  0.37875  0.16578  0.96240  1.0000
  I   I47       1.0  0.89882  0.01496  0.89590  1.0000
  I   I48       1.0  0.95104  0.92390  0.52649  1.0000
  I   I49       1.0  0.05949  0.84390  0.18233  1.0000
  I   I50       1.0  0.50858  0.71255  0.64980  1.0000
  I   I51       1.0  0.50836  0.74609  0.58293  1.0000
  I   I52       1.0  0.70574  0.81705  0.83125  1.0000
  I   I53       1.0  0.43294  0.67064  0.71814  1.0000
  I   I54       1.0  0.36968  0.94901  0.92937  1.0000
  I   I55       1.0  0.93001  0.81543  0.07733  1.0000
  I   I56       1.0  0.17528  0.95295  0.55347  1.0000
  I   I57       1.0  0.35520  0.19759  0.88841  1.0000
  I   I58       1.0  0.59266  0.64793  0.45656  1.0000
  I   I59       1.0  0.18279  0.81008  0.72288  1.0000
  I   I60       1.0  0.87532  0.18902  0.05199  1.0000
  I   I61       1.0  0.89261  0.62880  0.79077  1.0000
  I   I62       1.0  0.95780  0.54678  0.69220  1.0000
  I   I63       1.0  0.02947  0.74638  0.97111  1.0000
  I   I64       1.0  0.18156  0.83543  0.54842  1.0000
  I   I65       1.0  0.41381  0.27036  0.79095  1.0000
  I   I66       1.0  0.38555  0.97037  0.05089  1.0000
  I   I67       1.0  0.61725  0.28457  0.85078  1.0000
  I   I68       1.0  0.06358  0.69940  0.95640  1.0000
  I   I69       1.0  0.05615  0.76304  0.48575  1.0000
  I   I70       1.0  0.28847  0.05574  0.52815  1.0000
  I   I71       1.0  0.20363  0.53166  0.51623  1.0000
  I   I72       1.0  0.86754  0.99078  0.96458  1.0000
  I   I73       1.0  0.71850  0.72015  0.03347  1.0000
  I   I74       1.0  0.13156  0.72783  0.57642  1.0000
  I   I75       1.0  0.10868  0.71960  0.49864  1.0000
  I   I76       1.0  0.89800  0.25121  0.21919  1.0000
  I   I77       1.0  0.87601  0.31677  0.04587  1.0000
  I   I78       1.0  0.82351  0.19513  0.18231  1.0000
  I   I79       1.0  0.52679  0.32708  0.03479  1.0000
  I   I80       1.0  0.82821  0.91643  0.60650  1.0000
  I   I81       1.0  0.47364  0.76539  0.12924  1.0000
  I   I82       1.0  0.72964  0.52070  0.71608  1.0000
  I   I83       1.0  0.96575  0.45126  0.29634  1.0000
  I   I84       1.0  0.21472  0.24507  0.63081  1.0000
  I   I85       1.0  0.19643  0.30131  0.76444  1.0000
  I   I86       1.0  0.43298  0.96521  0.06041  1.0000
  I   I87       1.0  0.94661  0.27998  0.64421  1.0000
  I   I88       1.0  0.55912  0.64687  0.38540  1.0000
  I   I89       1.0  0.73286  0.49448  0.38900  1.0000
  I   I90       1.0  0.08143  0.41366  0.92958  1.0000
  I   I91       1.0  0.76582  0.12497  0.56148  1.0000
  I   I92       1.0  0.27147  0.60744  0.19578  1.0000
  I   I93       1.0  0.82940  0.33797  0.48691  1.0000
  I   I94       1.0  0.99444  0.92650  0.56128  1.0000
  I   I95       1.0  0.84775  0.48637  0.05488  1.0000
  I   I96       1.0  0.54373  0.44174  0.65079  1.0000
  I   I97       1.0  0.07301  0.21678  0.50570  1.0000
  I   I98       1.0  0.85520  0.85846  0.56212  1.0000
  I   I99       1.0  0.49685  0.79732  0.63468  1.0000
  I   I100      1.0  0.22245  0.19946  0.69582  1.0000
  I   I101      1.0  0.12906  0.77785  0.90925  1.0000
  I   I102      1.0  0.37816  0.02843  0.58014  1.0000
  I   I103      1.0  0.89056  0.82969  0.14089  1.0000
  I   I104      1.0  0.51776  0.65565  0.04005  1.0000
  I   I105      1.0  0.12445  0.51823  0.57807  1.0000
  I   I106      1.0  0.69927  0.93862  0.09676  1.0000
  I   I107      1.0  0.57406  0.69414  0.40338  1.0000
  I   I108      1.0  0.72844  0.89449  0.02733  1.0000
  I   I109      1.0  0.88237  0.34058  0.12667  1.0000
  I   I110      1.0  0.92138  0.61170  0.88099  1.0000
  I   I111      1.0  0.98645  0.81004  0.88314  1.0000
  I   I112      1.0  0.71476  0.12657  0.84693  1.0000
  I   I113      1.0  0.42948  0.29701  0.71592  1.0000
  I   I114      1.0  0.30881  0.56185  0.60837  1.0000
  I   I115      1.0  0.27969  0.24172  0.28683  1.0000
  I   I116      1.0  0.32680  0.24895  0.24649  1.0000
  I   I117      1.0  0.69078  0.12386  0.16140  1.0000
  I   I118      1.0  0.50052  0.45193  0.81856  1.0000
  I   I119      1.0  0.31545  0.25163  0.35498  1.0000
  I   I120      1.0  0.92183  0.95553  0.98690  1.0000
  I   I121      1.0  0.62404  0.41486  0.27052  1.0000
  I   I122      1.0  0.69204  0.50502  0.14644  1.0000
  I   I123      1.0  0.98916  0.72706  0.24956  1.0000
  I   I124      1.0  0.17853  0.09675  0.26822  1.0000
  I   I125      1.0  0.54613  0.02581  0.42336  1.0000
  I   I126      1.0  0.98715  0.98465  0.78147  1.0000
  I   I127      1.0  0.51973  0.38289  0.00171  1.0000
  I   I128      1.0  0.16302  0.21080  0.77629  1.0000
  I   I129      1.0  0.18406  0.53016  0.41181  1.0000
  I   I130      1.0  0.31823  0.21042  0.55300  1.0000
  I   I131      1.0  0.71333  0.52152  0.79831  1.0000
  I   I132      1.0  0.62774  0.85649  0.12331  1.0000
  I   I133      1.0  0.99526  0.27336  0.61703  1.0000
  I   I134      1.0  0.38184  0.41466  0.82699  1.0000
  I   I135      1.0  0.37689  0.02710  0.00648  1.0000
  I   I136      1.0  0.89333  0.75255  0.56569  1.0000
  I   I137      1.0  0.43201  0.41431  0.12016  1.0000
  I   I138      1.0  0.99121  0.57016  0.34938  1.0000
  I   I139      1.0  0.70844  0.15546  0.56408  1.0000
  I   I140      1.0  0.31581  0.55584  0.15118  1.0000
  I   I141      1.0  0.36218  0.56455  0.64941  1.0000
  I   I142      1.0  0.02882  0.88949  0.50029  1.0000
  I   I143      1.0  0.08185  0.18957  0.61346  1.0000
  I   I144      1.0  0.54845  0.39663  0.66537  1.0000
  I   I145      1.0  0.87302  0.89443  0.50650  1.0000
  I   I146      1.0  0.48074  0.76494  0.69957  1.0000
  I   I147      1.0  0.12110  0.16907  0.53919  1.0000
  I   I148      1.0  0.42973  0.43438  0.21132  1.0000
  I   I149      1.0  0.37358  0.99197  0.65851  1.0000
  I   I150      1.0  0.55485  0.54971  0.12222  1.0000
  I   I151      1.0  0.51386  0.71811  0.12578  1.0000
  I   I152      1.0  0.21512  0.97952  0.41687  1.0000
  I   I153      1.0  0.07013  0.53557  0.59942  1.0000
  I   I154      1.0  0.09569  0.76950  0.22725  1.0000
  I   I155      1.0  0.16039  0.86499  0.06241  1.0000
  I   I156      1.0  0.90093  0.19088  0.93599  1.0000
  I   I157      1.0  0.87664  0.27457  0.08899  1.0000
  I   I158      1.0  0.98125  0.78930  0.97814  1.0000
  I   I159      1.0  0.62922  0.11152  0.45649  1.0000
  I   I160      1.0  0.73377  0.12114  0.93413  1.0000
  I   I161      1.0  0.30432  0.58936  0.47656  1.0000
  I   I162      1.0  0.66340  0.14526  0.80739  1.0000
  I   I163      1.0  0.63217  0.31538  0.76807  1.0000
  I   I164      1.0  0.71849  0.15912  0.18290  1.0000
  I   I165      1.0  0.22361  0.93395  0.45048  1.0000
  I   I166      1.0  0.51233  0.40291  0.74743  1.0000
  I   I167      1.0  0.16512  0.55401  0.59337  1.0000
  I   I168      1.0  0.63377  0.22938  0.56166  1.0000
  I   I169      1.0  0.71466  0.43848  0.00880  1.0000
  I   I170      1.0  0.71392  0.45330  0.11507  1.0000
  I   I171      1.0  0.66575  0.77709  0.03783  1.0000
  I   I172      1.0  0.57380  0.00878  0.52018  1.0000
  I   I173      1.0  0.02922  0.98112  0.72041  1.0000
  I   I174      1.0  0.16233  0.08454  0.17626  1.0000
  I   I175      1.0  0.79497  0.23806  0.25288  1.0000
  I   I176      1.0  0.51391  0.73627  0.01943  1.0000
  I   I177      1.0  0.45856  0.83185  0.38593  1.0000
  I   I178      1.0  0.66573  0.54603  0.74385  1.0000
  I   I179      1.0  0.96339  0.47911  0.20006  1.0000
  I   I180      1.0  0.20041  0.28931  0.55021  1.0000
  I   I181      1.0  0.19418  0.32939  0.84459  1.0000
  I   I182      1.0  0.96029  0.76402  0.10663  1.0000
  I   I183      1.0  0.68723  0.79002  0.33067  1.0000
  I   I184      1.0  0.11136  0.76484  0.82335  1.0000
  I   I185      1.0  0.97818  0.62378  0.38464  1.0000
  I   I186      1.0  0.87488  0.73295  0.47881  1.0000
  I   I187      1.0  0.30176  0.55562  0.26165  1.0000
  I   I188      1.0  0.79685  0.33994  0.39261  1.0000
  I   I189      1.0  0.67518  0.77221  0.26189  1.0000
  I   I190      1.0  0.85282  0.50848  0.95417  1.0000
  I   I191      1.0  0.08356  0.37133  0.98439  1.0000
  I   I192      1.0  0.13002  0.20627  0.55417  1.0000
  I   I193      1.0  0.01449  0.06329  0.85059  1.0000
  I   I194      1.0  0.07410  0.41945  0.05134  1.0000
  I   I195      1.0  0.09104  0.23594  0.61155  1.0000
  I   I196      1.0  0.19106  0.16128  0.73665  1.0000
  I   I197      1.0  0.43680  0.13647  0.58612  1.0000
  I   I198      1.0  0.54423  0.57998  0.02614  1.0000
  I   I199      1.0  0.47852  0.71359  0.07113  1.0000
  I   I200      1.0  0.76099  0.92262  0.77583  1.0000
  I   I201      1.0  0.12456  0.54819  0.65243  1.0000
  I   I202      1.0  0.14830  0.87250  0.69803  1.0000
  I   I203      1.0  0.06325  0.73978  0.58070  1.0000
  I   I204      1.0  0.71757  0.87934  0.12398  1.0000
  I   I205      1.0  0.95476  0.56698  0.80122  1.0000
  I   I206      1.0  0.16861  0.24227  0.71759  1.0000
  I   I207      1.0  0.85549  0.25595  0.17485  1.0000
  I   I208      1.0  0.15318  0.84376  0.62694  1.0000
  I   I209      1.0  0.26363  0.60183  0.56499  1.0000
  I   I210      1.0  0.47779  0.86998  0.37082  1.0000
  I   I211      1.0  0.27868  0.01277  0.48360  1.0000
  I   I212      1.0  0.01051  0.70534  0.96185  1.0000
  I   I213      1.0  0.01392  0.77820  0.55814  1.0000
  I   I214      1.0  0.54074  0.45463  0.74727  1.0000
  I   I215      1.0  0.21989  0.55730  0.58947  1.0000
  I   I216      1.0  0.36909  0.56188  0.75670  1.0000
  I   I217      1.0  0.74781  0.45928  0.17209  1.0000
  I   I218      1.0  0.00375  0.66587  0.28514  1.0000
  I   I219      1.0  0.65563  0.39183  0.35361  1.0000
  I   I220      1.0  0.90634  0.28622  0.17928  1.0000
  I   I221      1.0  0.96984  0.09484  0.79741  1.0000
  I   I222      1.0  0.59307  0.04131  0.42891  1.0000
  I   I223      1.0  0.76108  0.23704  0.14294  1.0000
  I   I224      1.0  0.44760  0.75933  0.05028  1.0000
  I   I225      1.0  0.58065  0.33043  0.02155  1.0000
  I   I226      1.0  0.70651  0.57419  0.69436  1.0000
  I   I227      1.0  0.62839  0.83198  0.21619  1.0000
  I   I228      1.0  0.18832  0.24864  0.54655  1.0000
  I   I229      1.0  0.28556  0.55416  0.52037  1.0000
  I   I230      1.0  0.43584  0.40759  0.85219  1.0000
  I   I231      1.0  0.95124  0.28782  0.54014  1.0000
  I   I232      1.0  0.16103  0.25748  0.80598  1.0000
  I   I233      1.0  0.85532  0.64007  0.05951  1.0000
  I   I234      1.0  0.14838  0.37489  0.96124  1.0000
  I   I235      1.0  0.07095  0.82799  0.26442  1.0000
  I   I236      1.0  0.41673  0.53971  0.70325  1.0000
  I   I237      1.0  0.74546  0.12612  0.45889  1.0000
  I   I238      1.0  0.39974  0.21559  0.90046  1.0000
  I   I239      1.0  0.49533  0.44935  0.70965  1.0000
  I   I240      1.0  0.95137  0.97987  0.52827  1.0000
  I   I241      1.0  0.88619  0.86863  0.61645  1.0000
  I   I242      1.0  0.53795  0.74573  0.68701  1.0000
  I   I243      1.0  0.83458  0.47966  0.92742  1.0000
  I   I244      1.0  0.12115  0.72901  0.90252  1.0000
  I   I245      1.0  0.37842  0.68913  0.78672  1.0000
  I   I246      1.0  0.52826  0.53859  0.04951  1.0000
  I   I247      1.0  0.88369  0.85327  0.03377  1.0000
  I   I248      1.0  0.22203  0.91792  0.56611  1.0000
  I   I249      1.0  0.07048  0.55169  0.68310  1.0000
  I   I250      1.0  0.23384  0.81857  0.59535  1.0000
  I   I251      1.0  0.12004  0.91004  0.96970  1.0000
  I   I252      1.0  0.83434  0.21148  0.98199  1.0000
  I   I253      1.0  0.95426  0.62392  0.80490  1.0000
  I   I254      1.0  0.22254  0.22589  0.79022  1.0000
  I   I255      1.0  0.66088  0.08665  0.36876  1.0000
  I   I256      1.0  0.36913  0.33785  0.75750  1.0000
  I   I257      1.0  0.14828  0.32469  0.78929  1.0000
  I   I258      1.0  0.64550  0.19211  0.87158  1.0000
  I   I259      1.0  0.34016  0.19522  0.32721  1.0000
  I   I260      1.0  0.74517  0.10244  0.11483  1.0000
  I   I261      1.0  0.20058  0.96721  0.63121  1.0000
  I   I262      1.0  0.56033  0.39707  0.77295  1.0000
  I   I263      1.0  0.17936  0.65255  0.33214  1.0000
  I   I264      1.0  0.25986  0.23757  0.58803  1.0000
  I   I265      1.0  0.75443  0.45557  0.06433  1.0000
  I   I266      1.0  0.10369  0.77010  0.50439  1.0000
  I   I267      1.0  0.67381  0.35273  0.26171  1.0000
  I   I268      1.0  0.46657  0.06126  0.04081  1.0000
  I   I269      1.0  0.02295  0.00580  0.83202  1.0000
  I   I270      1.0  0.43428  0.06211  0.97490  1.0000
  I   I271      1.0  0.77212  0.19729  0.21185  1.0000
  I   I272      1.0  0.14181  0.56741  0.45600  1.0000
  I   I273      1.0  0.54530  0.33067  0.93295  1.0000
  I   I274      1.0  0.81406  0.66011  0.14987  1.0000
  I   I275      1.0  0.57886  0.88853  0.17651  1.0000
  I   I276      1.0  0.27574  0.26531  0.50859  1.0000
  I   I277      1.0  0.68716  0.57981  0.78981  1.0000
  I   I278      1.0  0.41216  0.43899  0.75010  1.0000
  I   I279      1.0  0.71701  0.71004  0.36773  1.0000
  I   I280      1.0  0.48471  0.41225  0.14961  1.0000
  I   I281      1.0  0.83086  0.69966  0.13944  1.0000
  I   I282      1.0  0.88655  0.78314  0.46595  1.0000
  I   I283      1.0  0.04898  0.80639  0.17117  1.0000
  I   I284      1.0  0.60835  0.25495  0.45823  1.0000
  I   I285      1.0  0.72714  0.73413  0.29992  1.0000
  I   I286      1.0  0.36854  0.22029  0.96305  1.0000
  I   I287      1.0  0.90315  0.96715  0.86595  1.0000
  I   I288      1.0  0.97229  0.92308  0.43815  1.0000
  I   I289      1.0  0.11702  0.80215  0.19805  1.0000
  I   I290      1.0  0.12763  0.36192  0.05062  1.0000
  I   I291      1.0  0.53620  0.79262  0.74016  1.0000
  I   I292      1.0  0.44165  0.47014  0.16882  1.0000
  I   I293      1.0  0.40560  0.63981  0.75826  1.0000
  I   I294      1.0  0.36680  0.95940  0.82718  1.0000
  I   I295      1.0  0.94646  0.80591  0.18917  1.0000
  I   I296      1.0  0.81394  0.91229  0.76783  1.0000
  I   I297      1.0  0.16977  0.47619  0.62620  1.0000
  I   I298      1.0  0.41432  0.18707  0.52208  1.0000
  I   I299      1.0  0.19873  0.79057  0.63191  1.0000
  I   I300      1.0  0.39199  0.50471  0.66895  1.0000
  I   I301      1.0  0.70131  0.09468  0.41926  1.0000
  I   I302      1.0  0.92590  0.60903  0.73738  1.0000
  I   I303      1.0  0.52233  0.69594  0.39479  1.0000
  I   I304      1.0  0.68530  0.16118  0.94653  1.0000
  I   I305      1.0  0.21444  0.83711  0.69857  1.0000
  I   I306      1.0  0.91367  0.76854  0.15282  1.0000
  I   I307      1.0  0.58786  0.34503  0.83574  1.0000
  I   I308      1.0  0.00455  0.81989  0.97486  1.0000
  I   I309      1.0  0.18769  0.99510  0.53207  1.0000
  I   I310      1.0  0.02220  0.81514  0.26856  1.0000
  I   I311      1.0  0.23204  0.62979  0.29091  1.0000
  I   I312      1.0  0.94980  0.91594  0.89988  1.0000
  I   I313      1.0  0.62947  0.35507  0.32333  1.0000
  I   I314      1.0  0.67213  0.49291  0.04680  1.0000
  I   I315      1.0  0.96474  0.70568  0.19316  1.0000
  I   I316      1.0  0.54198  0.07213  0.49618  1.0000
  I   I317      1.0  0.42686  0.03327  0.06660  1.0000
  I   I318      1.0  0.01315  0.03552  0.73914  1.0000
  I   I319      1.0  0.40872  0.90085  0.38932  1.0000
  I   I320      1.0  0.17696  0.19678  0.65992  1.0000
  I   I321      1.0  0.55251  0.67044  0.05726  1.0000
  I   I322      1.0  0.73976  0.47778  0.48479  1.0000
  I   I323      1.0  0.00029  0.49052  0.24692  1.0000
  I   I324      1.0  0.24617  0.23351  0.49747  1.0000
  I   I325      1.0  0.22062  0.35388  0.75181  1.0000
  I   I326      1.0  0.86028  0.81582  0.04788  1.0000
  I   I327      1.0  0.78000  0.67050  0.36163  1.0000
  I   I328      1.0  0.53348  0.68203  0.49988  1.0000
  I   I329      1.0  0.01143  0.58558  0.27399  1.0000
  I   I330      1.0  0.13625  0.32386  0.97406  1.0000
  I   I331      1.0  0.66162  0.75160  0.35170  1.0000
  I   I332      1.0  0.41446  0.13773  0.47819  1.0000
  I   I333      1.0  0.76485  0.51617  0.42915  1.0000
  I   I334      1.0  0.98533  0.87364  0.51713  1.0000
  I   I335      1.0  0.80671  0.53435  0.98772  1.0000
  I   I336      1.0  0.59781  0.40658  0.72405  1.0000
  I   I337      1.0  0.00043  0.85080  0.18395  1.0000
  I   I338      1.0  0.02634  0.41350  0.97529  1.0000
  I   I339      1.0  0.56564  0.77833  0.64990  1.0000
  I   I340      1.0  0.75025  0.83700  0.77849  1.0000
  I   I341      1.0  0.42824  0.00683  0.64362  1.0000
  I   I342      1.0  0.41652  0.93608  0.89814  1.0000
  I   I343      1.0  0.50834  0.67866  0.15000  1.0000
  I   I344      1.0  0.79050  0.91797  0.87123  1.0000
  I   I345      1.0  0.15816  0.50936  0.72139  1.0000
  I   I346      1.0  0.27915  0.03335  0.61089  1.0000
  I   I347      1.0  0.18837  0.86589  0.62009  1.0000
  I   I348      1.0  0.87950  0.15245  0.97966  1.0000
  I   I349      1.0  0.65356  0.13630  0.39573  1.0000
  I   I350      1.0  0.90082  0.57673  0.69828  1.0000
  I   I351      1.0  0.22452  0.18248  0.78837  1.0000
  I   I352      1.0  0.70727  0.09004  0.92041  1.0000
  I   I353      1.0  0.37799  0.29965  0.69268  1.0000
  I   I354      1.0  0.90631  0.80106  0.01101  1.0000
  I   I355      1.0  0.64245  0.31956  0.89546  1.0000
  I   I356      1.0  0.73974  0.09663  0.22876  1.0000
  I   I357      1.0  0.07484  0.77406  0.60622  1.0000
  I   I358      1.0  0.56078  0.26222  0.52262  1.0000
  I   I359      1.0  0.20937  0.58775  0.28814  1.0000
  I   I360      1.0  0.99391  0.94092  0.91277  1.0000
  I   I361      1.0  0.66486  0.72649  0.99326  1.0000
  I   I362      1.0  0.71055  0.48794  0.98416  1.0000
  I   I363      1.0  0.04280  0.81201  0.53515  1.0000
  I   I364      1.0  0.15703  0.13866  0.20732  1.0000
  I   I365      1.0  0.84784  0.31044  0.15980  1.0000
  I   I366      1.0  0.97771  0.05784  0.89429  1.0000
  I   I367      1.0  0.43695  0.88244  0.29842  1.0000
  I   I368      1.0  0.69070  0.86307  0.76876  1.0000
  I   I369      1.0  0.19271  0.58386  0.49881  1.0000
  I   I370      1.0  0.81025  0.69358  0.04840  1.0000
  I   I371      1.0  0.94064  0.51041  0.28533  1.0000
  I   I372      1.0  0.60569  0.28294  0.55204  1.0000
  I   I373      1.0  0.17971  0.34349  0.68246  1.0000
  I   I374      1.0  0.43583  0.37972  0.75322  1.0000
  I   I375      1.0  0.74552  0.65679  0.42657  1.0000
  I   I376      1.0  0.22247  0.60697  0.38527  1.0000
  I   I377      1.0  0.03838  0.57705  0.37866  1.0000
  I   I378      1.0  0.83957  0.79743  0.52394  1.0000
  I   I379      1.0  0.75145  0.17215  0.51708  1.0000
  I   I380      1.0  0.26545  0.55261  0.18706  1.0000
  I   I381      1.0  0.65836  0.91613  0.09049  1.0000
  I   I382      1.0  0.99893  0.95029  0.46508  1.0000
  I   I383      1.0  0.41331  0.15420  0.88817  1.0000
  I   I384      1.0  0.93997  0.98008  0.94142  1.0000
