data_image0
_chemical_formula_structural       Ti96I384
_chemical_formula_sum              "Ti96 I384"
_cell_length_a       60.5166
_cell_length_b       60.6872
_cell_length_c       29.4079
_cell_angle_alpha    88.7757
_cell_angle_beta     88.7757
_cell_angle_gamma    62.1586

_space_group_name_H-M_alt    "P 1"
_space_group_IT_number       1

loop_
  _space_group_symop_operation_xyz
  'x, y, z'

loop_
  _atom_site_type_symbol
  _atom_site_label
  _atom_site_symmetry_multiplicity
  _atom_site_fract_x
  _atom_site_fract_y
  _atom_site_fract_z
  _atom_site_occupancy
  Ti  Ti1       1.0  0.90672  0.87050  0.46316  1.0000
  Ti  Ti2       1.0  0.63267  0.07519  0.74443  1.0000
  Ti  Ti3       1.0  0.90455  0.77615  0.97688  1.0000
  Ti  Ti4       1.0  0.39544  0.48916  0.42727  1.0000
  Ti  Ti5       1.0  0.98887  0.80345  0.24791  1.0000
  Ti  Ti6       1.0  0.45340  0.02337  0.00062  1.0000
  Ti  Ti7       1.0  0.04591  0.92726  0.01652  1.0000
  Ti  Ti8       1.0  0.15899  0.63644  0.06275  1.0000
  Ti  Ti9       1.0  0.92647  0.10018  0.48174  1.0000
  Ti  Ti10      1.0  0.85714  0.99656  0.22537  1.0000
  Ti  Ti11      1.0  0.15735  0.54532  0.84890  1.0000
  Ti  Ti12      1.0  0.23175  0.70426  0.57851  1.0000
  Ti  Ti13      1.0  0.37063  0.32785  0.48413  1.0000
  Ti  Ti14      1.0  0.27518  0.09835  0.86797  1.0000
  Ti  Ti15      1.0  0.41817  0.78402  0.06909  1.0000
  Ti  Ti16      1.0  0.91576  0.27115  0.71360  1.0000
  Ti  Ti17      1.0  0.22960  0.29712  0.66540  1.0000
  Ti  Ti18      1.0  0.74812  0.61501  0.56348  1.0000
  Ti  Ti19      1.0  0.61675  0.97715  0.24532  1.0000
  Ti  Ti20      1.0  0.38969  0.11009  0.64863  1.0000
  Ti  Ti21      1.0  0.40759  0.39777  0.04801  1.0000
  Ti  Ti22      1.0  0.50580  0.99264  0.45723  1.0000
  Ti  Ti23      1.0  0.57383  0.82511  0.92052  1.0000
  Ti  Ti24      1.0  0.40564  0.00353  0.45469  1.0000
  Ti  Ti25      1.0  0.20821  0.21695  0.11340  1.0000
  Ti  Ti26      1.0  0.94028  0.41718  0.40523  1.0000
  Ti  Ti27      1.0  0.32623  0.60413  0.70206  1.0000
  Ti  Ti28      1.0  0.71203  0.61863  0.91833  1.0000
  Ti  Ti29      1.0  0.02750  0.17118  0.32309  1.0000
  Ti  Ti30      1.0  0.88375  0.48650  0.10370  1.0000
  Ti  Ti31      1.0  0.67992  0.38672  0.37569  1.0000
  Ti  Ti32      1.0  0.72594  0.92032  0.86826  1.0000
  Ti  Ti33      1.0  0.51179  0.72354  0.34537  1.0000
  Ti  Ti34      1.0  0.80422  0.69017  0.63724  1.0000
  Ti  Ti35      1.0  0.84037  0.31196  0.02392  1.0000
  Ti  Ti36      1.0  0.00664  0.56836  0.94095  1.0000
  Ti  Ti37      1.0  0.21621  0.19551  0.57910  1.0000
  Ti  Ti38      1.0  0.54447  0.30757  0.42254  1.0000
  Ti  Ti39      1.0  0.49257  0.19631  0.02652  1.0000
  Ti  Ti40      1.0  0.90703  0.65865  0.34440  1.0000
  Ti  Ti41      1.0  0.68521  0.59155  0.34814  1.0000
  Ti  Ti42      1.0  0.09165  0.83616  0.58265  1.0000
  Ti  Ti43      1.0  0.25361  0.92919  0.08938  1.0000
  Ti  Ti44      1.0  0.75519  0.68288  0.08427  1.0000
  Ti  Ti45      1.0  0.63408  0.48793  0.75847  1.0000
  Ti  Ti46      1.0  0.05599  0.99186  0.58682  1.0000
  Ti  Ti47      1.0  0.70032  0.18525  0.01302  1.0000
  Ti  Ti48      1.0  0.36035  0.57671  0.99328  1.0000
  Ti  Ti49      1.0  0.88727  0.93837  0.52621  1.0000
  Ti  Ti50      1.0  0.67283  0.08955  0.11861  1.0000
  Ti  Ti51      1.0  0.57663  0.08228  0.82471  1.0000
  Ti  Ti52      1.0  0.43777  0.51038  0.48806  1.0000
  Ti  Ti53      1.0  0.98754  0.81032  0.12600  1.0000
  Ti  Ti54      1.0  0.40364  0.05302  0.12129  1.0000
  Ti  Ti55      1.0  0.05340  0.95142  0.13878  1.0000
  Ti  Ti56      1.0  0.15805  0.58856  0.16046  1.0000
  Ti  Ti57      1.0  0.95251  0.10029  0.38845  1.0000
  Ti  Ti58      1.0  0.24152  0.99407  0.11749  1.0000
  Ti  Ti59      1.0  0.83269  0.93687  0.21163  1.0000
  Ti  Ti60      1.0  0.21135  0.74643  0.50478  1.0000
  Ti  Ti61      1.0  0.42381  0.83278  0.96694  1.0000
  Ti  Ti62      1.0  0.35223  0.31794  0.36669  1.0000
  Ti  Ti63      1.0  0.20435  0.18898  0.89921  1.0000
  Ti  Ti64      1.0  0.74981  0.60571  0.68912  1.0000
  Ti  Ti65      1.0  0.85553  0.32489  0.73479  1.0000
  Ti  Ti66      1.0  0.72833  0.24747  0.77449  1.0000
  Ti  Ti67      1.0  0.62313  0.93129  0.10583  1.0000
  Ti  Ti68      1.0  0.40681  0.10088  0.80062  1.0000
  Ti  Ti69      1.0  0.40826  0.40785  0.95178  1.0000
  Ti  Ti70      1.0  0.45851  0.98145  0.55748  1.0000
  Ti  Ti71      1.0  0.58244  0.81177  0.02205  1.0000
  Ti  Ti72      1.0  0.80608  0.82470  0.23626  1.0000
  Ti  Ti73      1.0  0.38022  0.61493  0.75062  1.0000
  Ti  Ti74      1.0  0.15918  0.29213  0.13312  1.0000
  Ti  Ti75      1.0  0.92246  0.48435  0.41596  1.0000
  Ti  Ti76      1.0  0.85295  0.51585  0.01126  1.0000
  Ti  Ti77      1.0  0.63762  0.65890  0.88997  1.0000
  Ti  Ti78      1.0  0.05690  0.19049  0.20782  1.0000
  Ti  Ti79      1.0  0.51577  0.78701  0.35534  1.0000
  Ti  Ti80      1.0  0.71976  0.41858  0.47416  1.0000
  Ti  Ti81      1.0  0.78572  0.92104  0.79657  1.0000
  Ti  Ti82      1.0  0.75540  0.76465  0.56233  1.0000
  Ti  Ti83      1.0  0.77728  0.30197  0.08722  1.0000
  Ti  Ti84      1.0  0.98617  0.56170  0.85613  1.0000
  Ti  Ti85      1.0  0.22154  0.11620  0.57037  1.0000
  Ti  Ti86      1.0  0.61092  0.25435  0.47867  1.0000
  Ti  Ti87      1.0  0.54809  0.20978  0.97362  1.0000
  Ti  Ti88      1.0  0.94882  0.68791  0.37446  1.0000
  Ti  Ti89      1.0  0.66717  0.66904  0.29742  1.0000
  Ti  Ti90      1.0  0.07181  0.78044  0.58587  1.0000
  Ti  Ti91      1.0  0.59722  0.48847  0.69877  1.0000
  Ti  Ti92      1.0  0.94668  0.14729  0.00865  1.0000
  Ti  Ti93      1.0  0.75373  0.73754  0.02747  1.0000
  Ti  Ti94      1.0  0.40008  0.60315  0.08413  1.0000
  Ti  Ti95      1.0  0.04680  0.93564  0.65988  1.0000
  Ti  Ti96      1.0  0.72791  0.11340  0.09291  1.0000
  I   I1        1.0  0.75438  0.10304  0.16820  1.0000
  I   I2        1.0  0.62789  0.05514  0.82957  1.0000
  I   I3        1.0  0.91226  0.83816  0.53159  1.0000
  I   I4        1.0  0.01654  0.82065  0.07339  1.0000
  I   I5        1.0  0.49569  0.00004  0.04613  1.0000
  I   I6        1.0  0.36342  0.09421  0.12006  1.0000
  I   I7        1.0  0.13987  0.56278  0.12629  1.0000
  I   I8        1.0  0.15121  0.58509  0.24812  1.0000
  I   I9        1.0  0.89327  0.13860  0.52133  1.0000
  I   I10       1.0  0.90249  0.97390  0.25496  1.0000
  I   I11       1.0  0.14820  0.58266  0.90170  1.0000
  I   I12       1.0  0.97937  0.84553  0.20252  1.0000
  I   I13       1.0  0.35827  0.36853  0.42935  1.0000
  I   I14       1.0  0.24285  0.07974  0.84385  1.0000
  I   I15       1.0  0.45349  0.80898  0.04162  1.0000
  I   I16       1.0  0.89126  0.29332  0.79748  1.0000
  I   I17       1.0  0.69569  0.23291  0.79390  1.0000
  I   I18       1.0  0.78042  0.57083  0.63127  1.0000
  I   I19       1.0  0.43308  0.06253  0.84604  1.0000
  I   I20       1.0  0.20684  0.52592  0.85894  1.0000
  I   I21       1.0  0.40088  0.44204  0.88769  1.0000
  I   I22       1.0  0.59161  0.85761  0.91231  1.0000
  I   I23       1.0  0.53957  0.84015  0.05488  1.0000
  I   I24       1.0  0.45656  0.94232  0.59056  1.0000
  I   I25       1.0  0.11372  0.31483  0.17232  1.0000
  I   I26       1.0  0.91926  0.39422  0.37295  1.0000
  I   I27       1.0  0.33514  0.62223  0.78640  1.0000
  I   I28       1.0  0.61123  0.63700  0.88537  1.0000
  I   I29       1.0  0.06633  0.14734  0.19037  1.0000
  I   I30       1.0  0.85697  0.46669  0.03833  1.0000
  I   I31       1.0  0.75223  0.38841  0.54365  1.0000
  I   I32       1.0  0.81618  0.93979  0.81102  1.0000
  I   I33       1.0  0.49575  0.83420  0.34484  1.0000
  I   I34       1.0  0.86063  0.27293  0.08279  1.0000
  I   I35       1.0  0.94795  0.59787  0.82624  1.0000
  I   I36       1.0  0.85058  0.65888  0.62329  1.0000
  I   I37       1.0  0.18967  0.22661  0.52276  1.0000
  I   I38       1.0  0.50978  0.22486  0.92034  1.0000
  I   I39       1.0  0.26658  0.08302  0.54464  1.0000
  I   I40       1.0  0.65942  0.57004  0.32299  1.0000
  I   I41       1.0  0.04712  0.84910  0.53257  1.0000
  I   I42       1.0  0.99010  0.67005  0.32397  1.0000
  I   I43       1.0  0.22880  0.97819  0.03672  1.0000
  I   I44       1.0  0.76114  0.74962  0.94349  1.0000
  I   I45       1.0  0.58892  0.53284  0.66778  1.0000
  I   I46       1.0  0.07247  0.02425  0.62918  1.0000
  I   I47       1.0  0.72886  0.16364  0.09262  1.0000
  I   I48       1.0  0.32727  0.59093  0.92149  1.0000
  I   I49       1.0  0.88999  0.91077  0.59700  1.0000
  I   I50       1.0  0.66080  0.09962  0.73856  1.0000
  I   I51       1.0  0.61223  0.09834  0.66911  1.0000
  I   I52       1.0  0.38457  0.51132  0.34322  1.0000
  I   I53       1.0  0.98946  0.81914  0.33227  1.0000
  I   I54       1.0  0.43968  0.06363  0.14818  1.0000
  I   I55       1.0  0.00871  0.93967  0.96154  1.0000
  I   I56       1.0  0.12842  0.67985  0.01866  1.0000
  I   I57       1.0  0.91335  0.14163  0.39065  1.0000
  I   I58       1.0  0.86139  0.01286  0.15023  1.0000
  I   I59       1.0  0.87233  0.94960  0.17976  1.0000
  I   I60       1.0  0.22237  0.71565  0.66509  1.0000
  I   I61       1.0  0.34622  0.28141  0.34217  1.0000
  I   I62       1.0  0.38395  0.32456  0.31259  1.0000
  I   I63       1.0  0.29865  0.10499  0.93430  1.0000
  I   I64       1.0  0.93906  0.22916  0.76343  1.0000
  I   I65       1.0  0.83630  0.36140  0.79929  1.0000
  I   I66       1.0  0.74743  0.23693  0.69175  1.0000
  I   I67       1.0  0.65866  0.88951  0.13698  1.0000
  I   I68       1.0  0.34675  0.12159  0.61474  1.0000
  I   I69       1.0  0.39449  0.42568  0.12818  1.0000
  I   I70       1.0  0.45394  0.01867  0.49666  1.0000
  I   I71       1.0  0.58117  0.81125  0.83454  1.0000
  I   I72       1.0  0.84129  0.78037  0.26785  1.0000
  I   I73       1.0  0.40162  0.59409  0.83002  1.0000
  I   I74       1.0  0.89554  0.52348  0.45761  1.0000
  I   I75       1.0  0.90723  0.44506  0.47190  1.0000
  I   I76       1.0  0.75002  0.62301  0.92776  1.0000
  I   I77       1.0  0.68298  0.66651  0.90402  1.0000
  I   I78       1.0  0.03192  0.22049  0.13809  1.0000
  I   I79       1.0  0.56084  0.78711  0.33179  1.0000
  I   I80       1.0  0.69418  0.38914  0.48870  1.0000
  I   I81       1.0  0.77980  0.90081  0.87612  1.0000
  I   I82       1.0  0.75688  0.71475  0.59221  1.0000
  I   I83       1.0  0.85040  0.34719  0.02493  1.0000
  I   I84       1.0  0.00043  0.54991  0.77409  1.0000
  I   I85       1.0  0.24351  0.14642  0.60361  1.0000
  I   I86       1.0  0.63357  0.20787  0.50057  1.0000
  I   I87       1.0  0.54426  0.17034  0.01756  1.0000
  I   I88       1.0  0.86172  0.66992  0.31709  1.0000
  I   I89       1.0  0.69905  0.68785  0.27652  1.0000
  I   I90       1.0  0.10856  0.79162  0.54013  1.0000
  I   I91       1.0  0.58588  0.51420  0.78654  1.0000
  I   I92       1.0  0.97765  0.10346  0.02600  1.0000
  I   I93       1.0  0.71536  0.71780  0.01887  1.0000
  I   I94       1.0  0.39913  0.55153  0.94456  1.0000
  I   I95       1.0  0.08380  0.95652  0.64562  1.0000
  I   I96       1.0  0.76174  0.08663  0.02968  1.0000
  I   I97       1.0  0.91130  0.81655  0.98206  1.0000
  I   I98       1.0  0.90572  0.96833  0.55088  1.0000
  I   I99       1.0  0.67117  0.03012  0.72353  1.0000
  I   I100      1.0  0.41509  0.44832  0.38948  1.0000
  I   I101      1.0  0.47484  0.49194  0.54910  1.0000
  I   I102      1.0  0.03685  0.79182  0.22900  1.0000
  I   I103      1.0  0.06370  0.87464  0.01674  1.0000
  I   I104      1.0  0.02264  0.99292  0.17480  1.0000
  I   I105      1.0  0.96303  0.05710  0.43030  1.0000
  I   I106      1.0  0.25419  0.75213  0.48758  1.0000
  I   I107      1.0  0.85765  0.89794  0.26167  1.0000
  I   I108      1.0  0.23825  0.69669  0.47733  1.0000
  I   I109      1.0  0.41596  0.75987  0.99944  1.0000
  I   I110      1.0  0.41032  0.32825  0.52372  1.0000
  I   I111      1.0  0.21316  0.14199  0.87734  1.0000
  I   I112      1.0  0.73272  0.57879  0.73062  1.0000
  I   I113      1.0  0.86335  0.28224  0.68907  1.0000
  I   I114      1.0  0.24475  0.25393  0.69008  1.0000
  I   I115      1.0  0.63689  0.94576  0.30960  1.0000
  I   I116      1.0  0.62877  0.96163  0.04756  1.0000
  I   I117      1.0  0.40901  0.07475  0.71334  1.0000
  I   I118      1.0  0.50354  0.95416  0.52330  1.0000
  I   I119      1.0  0.52365  0.96189  0.38707  1.0000
  I   I120      1.0  0.81684  0.81260  0.14847  1.0000
  I   I121      1.0  0.31468  0.60161  0.61677  1.0000
  I   I122      1.0  0.20963  0.26161  0.10611  1.0000
  I   I123      1.0  0.96382  0.41706  0.33516  1.0000
  I   I124      1.0  0.89028  0.52531  0.02976  1.0000
  I   I125      1.0  0.62349  0.67839  0.97135  1.0000
  I   I126      1.0  0.09918  0.18872  0.18959  1.0000
  I   I127      1.0  0.47689  0.73454  0.40954  1.0000
  I   I128      1.0  0.65702  0.40437  0.30328  1.0000
  I   I129      1.0  0.80741  0.87824  0.75550  1.0000
  I   I130      1.0  0.01182  0.56765  0.02714  1.0000
  I   I131      1.0  0.78968  0.67681  0.71000  1.0000
  I   I132      1.0  0.76069  0.31688  0.16762  1.0000
  I   I133      1.0  0.50129  0.17172  0.10283  1.0000
  I   I134      1.0  0.56146  0.26861  0.49078  1.0000
  I   I135      1.0  0.56090  0.28149  0.34939  1.0000
  I   I136      1.0  0.13164  0.82442  0.63390  1.0000
  I   I137      1.0  0.90007  0.69541  0.41487  1.0000
  I   I138      1.0  0.67498  0.59759  0.43581  1.0000
  I   I139      1.0  0.66786  0.47474  0.67955  1.0000
  I   I140      1.0  0.91909  0.15793  0.07932  1.0000
  I   I141      1.0  0.79068  0.74282  0.05291  1.0000
  I   I142      1.0  0.36370  0.64387  0.10317  1.0000
  I   I143      1.0  0.02271  0.91360  0.63362  1.0000
  I   I144      1.0  0.65551  0.20506  0.96766  1.0000
  I   I145      1.0  0.93275  0.89407  0.49358  1.0000
  I   I146      1.0  0.54457  0.11611  0.88794  1.0000
  I   I147      1.0  0.85713  0.79312  0.97172  1.0000
  I   I148      1.0  0.45491  0.51430  0.41009  1.0000
  I   I149      1.0  0.94970  0.83539  0.08292  1.0000
  I   I150      1.0  0.44394  0.98958  0.96618  1.0000
  I   I151      1.0  0.08709  0.92697  0.20347  1.0000
  I   I152      1.0  0.17291  0.64820  0.13875  1.0000
  I   I153      1.0  0.93609  0.07080  0.55401  1.0000
  I   I154      1.0  0.27177  0.89711  0.16013  1.0000
  I   I155      1.0  0.14930  0.51680  0.90374  1.0000
  I   I156      1.0  0.22663  0.66268  0.59013  1.0000
  I   I157      1.0  0.45590  0.82069  0.89820  1.0000
  I   I158      1.0  0.16903  0.22111  0.95257  1.0000
  I   I159      1.0  0.38543  0.83215  0.92070  1.0000
  I   I160      1.0  0.79155  0.59468  0.51466  1.0000
  I   I161      1.0  0.24438  0.29108  0.58034  1.0000
  I   I162      1.0  0.72101  0.58936  0.56163  1.0000
  I   I163      1.0  0.60251  0.90416  0.07159  1.0000
  I   I164      1.0  0.42115  0.13057  0.82931  1.0000
  I   I165      1.0  0.44883  0.36090  0.92749  1.0000
  I   I166      1.0  0.46106  0.00552  0.62913  1.0000
  I   I167      1.0  0.52709  0.85821  0.90999  1.0000
  I   I168      1.0  0.40916  0.01886  0.37356  1.0000
  I   I169      1.0  0.25256  0.18326  0.09137  1.0000
  I   I170      1.0  0.22437  0.20906  0.19941  1.0000
  I   I171      1.0  0.35145  0.55862  0.72833  1.0000
  I   I172      1.0  0.88145  0.48953  0.93952  1.0000
  I   I173      1.0  0.07401  0.17867  0.30274  1.0000
  I   I174      1.0  0.91534  0.49695  0.14881  1.0000
  I   I175      1.0  0.71823  0.34461  0.35652  1.0000
  I   I176      1.0  0.76669  0.93847  0.71818  1.0000
  I   I177      1.0  0.51833  0.77985  0.43996  1.0000
  I   I178      1.0  0.80668  0.72400  0.68685  1.0000
  I   I179      1.0  0.80036  0.33844  0.09268  1.0000
  I   I180      1.0  0.95541  0.58113  0.95240  1.0000
  I   I181      1.0  0.26636  0.19039  0.56554  1.0000
  I   I182      1.0  0.63979  0.25512  0.41195  1.0000
  I   I183      1.0  0.44746  0.22828  0.01118  1.0000
  I   I184      1.0  0.92282  0.68596  0.29218  1.0000
  I   I185      1.0  0.73109  0.56064  0.34910  1.0000
  I   I186      1.0  0.09881  0.74548  0.64153  1.0000
  I   I187      1.0  0.96185  0.18013  0.98183  1.0000
  I   I188      1.0  0.74163  0.72240  0.13837  1.0000
  I   I189      1.0  0.64551  0.47131  0.83969  1.0000
  I   I190      1.0  0.06143  0.00065  0.50398  1.0000
  I   I191      1.0  0.68794  0.12757  0.14881  1.0000
  I   I192      1.0  0.37620  0.57776  0.09008  1.0000
  I   I193      1.0  0.87838  0.92318  0.44349  1.0000
  I   I194      1.0  0.67244  0.06013  0.05780  1.0000
  I   I195      1.0  0.93120  0.74314  0.92160  1.0000
  I   I196      1.0  0.35050  0.49540  0.44503  1.0000
  I   I197      1.0  0.19111  0.02629  0.13484  1.0000
  I   I198      1.0  0.42425  0.06849  0.03243  1.0000
  I   I199      1.0  0.01396  0.94689  0.09778  1.0000
  I   I200      1.0  0.20541  0.55564  0.16048  1.0000
  I   I201      1.0  0.89754  0.08966  0.43547  1.0000
  I   I202      1.0  0.81163  0.91955  0.15471  1.0000
  I   I203      1.0  0.37702  0.44862  0.01429  1.0000
  I   I204      1.0  0.21154  0.77184  0.57844  1.0000
  I   I205      1.0  0.31920  0.35401  0.31739  1.0000
  I   I206      1.0  0.24425  0.17953  0.93926  1.0000
  I   I207      1.0  0.38694  0.83463  0.03455  1.0000
  I   I208      1.0  0.92363  0.26472  0.62140  1.0000
  I   I209      1.0  0.24801  0.32038  0.71152  1.0000
  I   I210      1.0  0.71697  0.64926  0.50904  1.0000
  I   I211      1.0  0.58775  0.96186  0.16541  1.0000
  I   I212      1.0  0.42281  0.07878  0.59553  1.0000
  I   I213      1.0  0.43467  0.35073  0.09120  1.0000
  I   I214      1.0  0.54682  0.98875  0.48989  1.0000
  I   I215      1.0  0.62079  0.79618  0.95620  1.0000
  I   I216      1.0  0.38081  0.97820  0.42915  1.0000
  I   I217      1.0  0.18287  0.19156  0.10666  1.0000
  I   I218      1.0  0.96495  0.45026  0.45372  1.0000
  I   I219      1.0  0.35475  0.63005  0.67022  1.0000
  I   I220      1.0  0.67606  0.61836  0.85573  1.0000
  I   I221      1.0  0.01059  0.21377  0.24675  1.0000
  I   I222      1.0  0.86332  0.47896  0.17341  1.0000
  I   I223      1.0  0.71637  0.40803  0.38389  1.0000
  I   I224      1.0  0.69123  0.95339  0.93410  1.0000
  I   I225      1.0  0.50386  0.69896  0.28104  1.0000
  I   I226      1.0  0.73716  0.78498  0.64282  1.0000
  I   I227      1.0  0.86641  0.28612  0.95614  1.0000
  I   I228      1.0  0.02515  0.51953  0.89737  1.0000
  I   I229      1.0  0.21022  0.08446  0.62486  1.0000
  I   I230      1.0  0.51425  0.35390  0.40634  1.0000
  I   I231      1.0  0.56773  0.24117  0.96473  1.0000
  I   I232      1.0  0.92432  0.61752  0.28301  1.0000
  I   I233      1.0  0.70355  0.62892  0.33725  1.0000
  I   I234      1.0  0.05303  0.75114  0.55319  1.0000
  I   I235      1.0  0.21283  0.92533  0.09634  1.0000
  I   I236      1.0  0.78937  0.64841  0.13330  1.0000
  I   I237      1.0  0.64358  0.52475  0.77966  1.0000
  I   I238      1.0  0.01223  0.03753  0.58669  1.0000
  I   I239      1.0  0.69620  0.13797  0.02653  1.0000
  I   I240      1.0  0.41617  0.60549  0.16821  1.0000
  I   I241      1.0  0.88727  0.84994  0.40269  1.0000
  I   I242      1.0  0.59019  0.11890  0.78689  1.0000
  I   I243      1.0  0.91482  0.75252  0.05806  1.0000
  I   I244      1.0  0.38968  0.53762  0.44918  1.0000
  I   I245      1.0  0.99911  0.75928  0.27300  1.0000
  I   I246      1.0  0.47808  0.02461  0.92856  1.0000
  I   I247      1.0  0.08680  0.90777  0.07418  1.0000
  I   I248      1.0  0.19889  0.62549  0.01775  1.0000
  I   I249      1.0  0.96462  0.10904  0.47792  1.0000
  I   I250      1.0  0.83519  0.97474  0.27769  1.0000
  I   I251      1.0  0.12154  0.56390  0.78879  1.0000
  I   I252      1.0  0.17233  0.77372  0.45465  1.0000
  I   I253      1.0  0.35411  0.31597  0.55607  1.0000
  I   I254      1.0  0.31258  0.05480  0.83312  1.0000
  I   I255      1.0  0.41109  0.87858  0.97265  1.0000
  I   I256      1.0  0.80995  0.34487  0.69683  1.0000
  I   I257      1.0  0.18321  0.31738  0.68223  1.0000
  I   I258      1.0  0.76403  0.61256  0.76796  1.0000
  I   I259      1.0  0.63318  0.00927  0.26420  1.0000
  I   I260      1.0  0.36761  0.10868  0.85962  1.0000
  I   I261      1.0  0.37844  0.38616  0.00636  1.0000
  I   I262      1.0  0.48905  0.03071  0.40427  1.0000
  I   I263      1.0  0.56760  0.78314  0.96909  1.0000
  I   I264      1.0  0.35349  0.03797  0.46702  1.0000
  I   I265      1.0  0.15610  0.24834  0.14649  1.0000
  I   I266      1.0  0.89964  0.47032  0.35580  1.0000
  I   I267      1.0  0.28295  0.61575  0.73123  1.0000
  I   I268      1.0  0.73880  0.57582  0.87019  1.0000
  I   I269      1.0  0.04972  0.13645  0.38372  1.0000
  I   I270      1.0  0.81918  0.54492  0.95192  1.0000
  I   I271      1.0  0.73594  0.45286  0.45520  1.0000
  I   I272      1.0  0.72005  0.91257  0.78263  1.0000
  I   I273      1.0  0.54198  0.74452  0.30482  1.0000
  I   I274      1.0  0.75664  0.80441  0.53215  1.0000
  I   I275      1.0  0.73704  0.33622  0.04987  1.0000
  I   I276      1.0  0.05935  0.55789  0.93632  1.0000
  I   I277      1.0  0.19897  0.22520  0.64621  1.0000
  I   I278      1.0  0.58128  0.31439  0.46521  1.0000
  I   I279      1.0  0.51629  0.23486  0.04358  1.0000
  I   I280      1.0  0.96909  0.67147  0.44905  1.0000
  I   I281      1.0  0.64574  0.63713  0.32188  1.0000
  I   I282      1.0  0.10713  0.85441  0.51963  1.0000
  I   I283      1.0  0.27895  0.90537  0.01295  1.0000
  I   I284      1.0  0.72792  0.66219  0.08965  1.0000
  I   I285      1.0  0.63494  0.44076  0.72774  1.0000
  I   I286      1.0  0.02714  0.96978  0.57687  1.0000
  I   I287      1.0  0.73102  0.06473  0.09310  1.0000
  I   I288      1.0  0.34031  0.55146  0.03262  1.0000
  I   I289      1.0  0.95030  0.83918  0.42707  1.0000
  I   I290      1.0  0.62727  0.12300  0.13373  1.0000
  I   I291      1.0  0.53640  0.10234  0.77687  1.0000
  I   I292      1.0  0.42307  0.47386  0.51926  1.0000
  I   I293      1.0  0.99698  0.76543  0.10622  1.0000
  I   I294      1.0  0.42413  0.01072  0.07387  1.0000
  I   I295      1.0  0.07255  0.94152  0.96472  1.0000
  I   I296      1.0  0.12023  0.63401  0.13357  1.0000
  I   I297      1.0  0.99729  0.08828  0.36063  1.0000
  I   I298      1.0  0.26097  0.02334  0.10112  1.0000
  I   I299      1.0  0.83598  0.04046  0.25926  1.0000
  I   I300      1.0  0.18306  0.72696  0.56291  1.0000
  I   I301      1.0  0.37988  0.78895  0.12208  1.0000
  I   I302      1.0  0.32238  0.33259  0.44381  1.0000
  I   I303      1.0  0.28827  0.11980  0.80517  1.0000
  I   I304      1.0  0.77055  0.63449  0.62552  1.0000
  I   I305      1.0  0.95639  0.27815  0.71258  1.0000
  I   I306      1.0  0.75873  0.24035  0.84027  1.0000
  I   I307      1.0  0.57150  0.99909  0.28556  1.0000
  I   I308      1.0  0.39903  0.14489  0.60766  1.0000
  I   I309      1.0  0.44593  0.40515  0.01371  1.0000
  I   I310      1.0  0.40806  0.99964  0.54947  1.0000
  I   I311      1.0  0.60105  0.83455  0.06970  1.0000
  I   I312      1.0  0.76966  0.81406  0.24824  1.0000
  I   I313      1.0  0.39064  0.65213  0.75499  1.0000
  I   I314      1.0  0.16954  0.32713  0.17254  1.0000
  I   I315      1.0  0.96868  0.37861  0.45839  1.0000
  I   I316      1.0  0.92403  0.45404  0.05156  1.0000
  I   I317      1.0  0.69695  0.60641  0.99488  1.0000
  I   I318      1.0  0.99179  0.20470  0.36811  1.0000
  I   I319      1.0  0.54642  0.69324  0.40100  1.0000
  I   I320      1.0  0.65072  0.37412  0.42134  1.0000
  I   I321      1.0  0.71780  0.88634  0.90360  1.0000
  I   I322      1.0  0.80560  0.72874  0.56684  1.0000
  I   I323      1.0  0.80854  0.28789  0.00775  1.0000
  I   I324      1.0  0.96293  0.53201  0.85362  1.0000
  I   I325      1.0  0.20471  0.11417  0.49162  1.0000
  I   I326      1.0  0.63168  0.26386  0.55634  1.0000
  I   I327      1.0  0.58939  0.16917  0.92872  1.0000
  I   I328      1.0  0.94398  0.73079  0.38731  1.0000
  I   I329      1.0  0.65893  0.65559  0.22006  1.0000
  I   I330      1.0  0.07722  0.81326  0.65546  1.0000
  I   I331      1.0  0.55615  0.48785  0.72821  1.0000
  I   I332      1.0  0.28215  0.95126  0.11437  1.0000
  I   I333      1.0  0.71981  0.78188  0.05647  1.0000
  I   I334      1.0  0.43989  0.61129  0.04899  1.0000
  I   I335      1.0  0.08803  0.89439  0.66012  1.0000
  I   I336      1.0  0.70299  0.22594  0.98843  1.0000
  I   I337      1.0  0.84441  0.97634  0.52702  1.0000
  I   I338      1.0  0.67936  0.06021  0.18571  1.0000
  I   I339      1.0  0.57763  0.04311  0.85103  1.0000
  I   I340      1.0  0.41377  0.55169  0.54490  1.0000
  I   I341      1.0  0.95525  0.80260  0.19279  1.0000
  I   I342      1.0  0.38530  0.02966  0.18398  1.0000
  I   I343      1.0  0.08121  0.97175  0.10901  1.0000
  I   I344      1.0  0.15415  0.59564  0.04440  1.0000
  I   I345      1.0  0.93140  0.09362  0.31004  1.0000
  I   I346      1.0  0.26454  0.98298  0.20906  1.0000
  I   I347      1.0  0.79048  0.96098  0.26291  1.0000
  I   I348      1.0  0.27586  0.69682  0.56271  1.0000
  I   I349      1.0  0.44960  0.75023  0.11866  1.0000
  I   I350      1.0  0.39489  0.28303  0.43089  1.0000
  I   I351      1.0  0.20500  0.21052  0.82277  1.0000
  I   I352      1.0  0.70867  0.64038  0.63491  1.0000
  I   I353      1.0  0.89119  0.32635  0.67461  1.0000
  I   I354      1.0  0.70502  0.29441  0.77472  1.0000
  I   I355      1.0  0.64748  0.95220  0.17396  1.0000
  I   I356      1.0  0.36520  0.13409  0.74018  1.0000
  I   I357      1.0  0.37302  0.40852  0.90190  1.0000
  I   I358      1.0  0.44856  0.95820  0.45819  1.0000
  I   I359      1.0  0.60193  0.77597  0.08218  1.0000
  I   I360      1.0  0.79652  0.87310  0.23298  1.0000
  I   I361      1.0  0.41487  0.56917  0.71689  1.0000
  I   I362      1.0  0.14660  0.30253  0.04397  1.0000
  I   I363      1.0  0.94751  0.49795  0.35738  1.0000
  I   I364      1.0  0.82614  0.53100  0.09079  1.0000
  I   I365      1.0  0.62888  0.68959  0.81941  1.0000
  I   I366      1.0  0.00757  0.15255  0.27012  1.0000
  I   I367      1.0  0.47994  0.77578  0.33158  1.0000
  I   I368      1.0  0.68392  0.45835  0.51568  1.0000
  I   I369      1.0  0.73837  0.95937  0.85069  1.0000
  I   I370      1.0  0.71645  0.76866  0.52546  1.0000
  I   I371      1.0  0.77413  0.26132  0.10262  1.0000
  I   I372      1.0  0.00427  0.60795  0.89912  1.0000
  I   I373      1.0  0.18806  0.17043  0.57905  1.0000
  I   I374      1.0  0.50021  0.30191  0.43652  1.0000
  I   I375      1.0  0.49287  0.16288  0.97159  1.0000
  I   I376      1.0  0.90494  0.62598  0.40529  1.0000
  I   I377      1.0  0.62853  0.71394  0.30441  1.0000
  I   I378      1.0  0.02262  0.80630  0.61428  1.0000
  I   I379      1.0  0.59546  0.48031  0.60733  1.0000
  I   I380      1.0  0.91963  0.14558  0.94572  1.0000
  I   I381      1.0  0.79369  0.67736  0.00685  1.0000
  I   I382      1.0  0.37436  0.61743  0.99105  1.0000
  I   I383      1.0  0.01595  0.97035  0.71914  1.0000
  I   I384      1.0  0.73335  0.15728  0.94777  1.0000
