data_image0
_chemical_formula_structural       Ti96I384
_chemical_formula_sum              "Ti96 I384"
_cell_length_a       40.9533
_cell_length_b       40.3889
_cell_length_c       22.3771
_cell_angle_alpha    88.7757
_cell_angle_beta     88.7757
_cell_angle_gamma    62.1586

_space_group_name_H-M_alt    "P 1"
_space_group_IT_number       1

loop_
  _space_group_symop_operation_xyz
  'x, y, z'

loop_
  _atom_site_type_symbol
  _atom_site_label
  _atom_site_symmetry_multiplicity
  _atom_site_fract_x
  _atom_site_fract_y
  _atom_site_fract_z
  _atom_site_occupancy
  Ti  Ti1       1.0  0.13830  0.09140  0.10523  1.0000
  Ti  Ti2       1.0  0.14648  0.09199  0.44095  1.0000
  Ti  Ti3       1.0  0.15270  0.07670  0.76560  1.0000
  Ti  Ti4       1.0  0.20885  0.30290  0.25462  1.0000
  Ti  Ti5       1.0  0.20325  0.31523  0.60412  1.0000
  Ti  Ti6       1.0  0.20951  0.32193  0.93610  1.0000
  Ti  Ti7       1.0  0.09855  0.68229  0.33259  1.0000
  Ti  Ti8       1.0  0.10946  0.67481  0.67928  1.0000
  Ti  Ti9       1.0  0.10695  0.67953  0.03153  1.0000
  Ti  Ti10      1.0  0.13313  0.86108  0.26794  1.0000
  Ti  Ti11      1.0  0.12745  0.88679  0.58517  1.0000
  Ti  Ti12      1.0  0.12691  0.85118  0.90668  1.0000
  Ti  Ti13      1.0  0.45083  0.04335  0.22199  1.0000
  Ti  Ti14      1.0  0.45490  0.04938  0.57744  1.0000
  Ti  Ti15      1.0  0.44694  0.05108  0.92279  1.0000
  Ti  Ti16      1.0  0.35243  0.40711  0.39363  1.0000
  Ti  Ti17      1.0  0.35219  0.43591  0.73500  1.0000
  Ti  Ti18      1.0  0.35179  0.43211  0.07674  1.0000
  Ti  Ti19      1.0  0.40099  0.62900  0.36536  1.0000
  Ti  Ti20      1.0  0.40606  0.62499  0.72096  1.0000
  Ti  Ti21      1.0  0.39360  0.63843  0.05102  1.0000
  Ti  Ti22      1.0  0.42465  0.80589  0.02917  1.0000
  Ti  Ti23      1.0  0.38308  0.87538  0.41921  1.0000
  Ti  Ti24      1.0  0.44661  0.82593  0.70440  1.0000
  Ti  Ti25      1.0  0.61340  0.14162  0.29213  1.0000
  Ti  Ti26      1.0  0.62981  0.12284  0.63132  1.0000
  Ti  Ti27      1.0  0.62741  0.12935  0.96992  1.0000
  Ti  Ti28      1.0  0.66407  0.30126  0.21870  1.0000
  Ti  Ti29      1.0  0.64761  0.33365  0.53375  1.0000
  Ti  Ti30      1.0  0.65634  0.31942  0.86214  1.0000
  Ti  Ti31      1.0  0.68286  0.57206  0.06024  1.0000
  Ti  Ti32      1.0  0.67763  0.57572  0.40625  1.0000
  Ti  Ti33      1.0  0.65415  0.56644  0.73211  1.0000
  Ti  Ti34      1.0  0.69789  0.79483  0.29705  1.0000
  Ti  Ti35      1.0  0.69247  0.78753  0.62270  1.0000
  Ti  Ti36      1.0  0.69237  0.79883  0.97504  1.0000
  Ti  Ti37      1.0  0.89560  0.11331  0.27287  1.0000
  Ti  Ti38      1.0  0.90199  0.11112  0.60960  1.0000
  Ti  Ti39      1.0  0.89962  0.10154  0.94441  1.0000
  Ti  Ti40      1.0  0.93608  0.31800  0.12431  1.0000
  Ti  Ti41      1.0  0.92604  0.33723  0.45886  1.0000
  Ti  Ti42      1.0  0.92106  0.31935  0.79354  1.0000
  Ti  Ti43      1.0  0.93751  0.54596  0.32346  1.0000
  Ti  Ti44      1.0  0.91962  0.55520  0.65002  1.0000
  Ti  Ti45      1.0  0.92680  0.54758  0.00442  1.0000
  Ti  Ti46      1.0  0.85310  0.86677  0.36262  1.0000
  Ti  Ti47      1.0  0.84518  0.88482  0.69089  1.0000
  Ti  Ti48      1.0  0.85213  0.87882  0.02339  1.0000
  Ti  Ti49      1.0  0.08361  0.14048  0.93446  1.0000
  Ti  Ti50      1.0  0.07720  0.15436  0.27629  1.0000
  Ti  Ti51      1.0  0.09149  0.14340  0.61044  1.0000
  Ti  Ti52      1.0  0.13407  0.34488  0.10536  1.0000
  Ti  Ti53      1.0  0.14905  0.31290  0.42601  1.0000
  Ti  Ti54      1.0  0.13852  0.33168  0.78341  1.0000
  Ti  Ti55      1.0  0.03290  0.73021  0.18191  1.0000
  Ti  Ti56      1.0  0.03881  0.73319  0.50799  1.0000
  Ti  Ti57      1.0  0.05140  0.72282  0.85251  1.0000
  Ti  Ti58      1.0  0.08256  0.91616  0.08024  1.0000
  Ti  Ti59      1.0  0.06454  0.93688  0.41079  1.0000
  Ti  Ti60      1.0  0.07625  0.93679  0.76597  1.0000
  Ti  Ti61      1.0  0.38810  0.12778  0.06465  1.0000
  Ti  Ti62      1.0  0.39446  0.10229  0.41339  1.0000
  Ti  Ti63      1.0  0.41512  0.10387  0.74966  1.0000
  Ti  Ti64      1.0  0.30245  0.47801  0.24112  1.0000
  Ti  Ti65      1.0  0.29319  0.47592  0.55513  1.0000
  Ti  Ti66      1.0  0.29712  0.49558  0.90313  1.0000
  Ti  Ti67      1.0  0.32851  0.67307  0.20923  1.0000
  Ti  Ti68      1.0  0.33599  0.66157  0.54045  1.0000
  Ti  Ti69      1.0  0.33083  0.67347  0.86904  1.0000
  Ti  Ti70      1.0  0.42613  0.86098  0.89277  1.0000
  Ti  Ti71      1.0  0.32334  0.94356  0.25757  1.0000
  Ti  Ti72      1.0  0.35405  0.90699  0.60152  1.0000
  Ti  Ti73      1.0  0.54725  0.18266  0.12510  1.0000
  Ti  Ti74      1.0  0.56753  0.19587  0.46064  1.0000
  Ti  Ti75      1.0  0.57075  0.19710  0.80178  1.0000
  Ti  Ti76      1.0  0.58678  0.39896  0.00885  1.0000
  Ti  Ti77      1.0  0.59120  0.38586  0.36338  1.0000
  Ti  Ti78      1.0  0.59588  0.37853  0.70678  1.0000
  Ti  Ti79      1.0  0.61183  0.63689  0.91264  1.0000
  Ti  Ti80      1.0  0.63050  0.63609  0.23340  1.0000
  Ti  Ti81      1.0  0.60973  0.63217  0.57804  1.0000
  Ti  Ti82      1.0  0.64514  0.84947  0.13013  1.0000
  Ti  Ti83      1.0  0.63398  0.85732  0.46491  1.0000
  Ti  Ti84      1.0  0.63442  0.85090  0.79741  1.0000
  Ti  Ti85      1.0  0.82687  0.15408  0.09642  1.0000
  Ti  Ti86      1.0  0.82853  0.16478  0.44850  1.0000
  Ti  Ti87      1.0  0.83969  0.15929  0.78362  1.0000
  Ti  Ti88      1.0  0.86020  0.36225  0.95574  1.0000
  Ti  Ti89      1.0  0.86567  0.37266  0.27579  1.0000
  Ti  Ti90      1.0  0.85774  0.38495  0.62593  1.0000
  Ti  Ti91      1.0  0.92064  0.60697  0.17343  1.0000
  Ti  Ti92      1.0  0.89166  0.62141  0.47070  1.0000
  Ti  Ti93      1.0  0.89244  0.61528  0.82491  1.0000
  Ti  Ti94      1.0  0.80077  0.93015  0.20069  1.0000
  Ti  Ti95      1.0  0.79107  0.93490  0.52513  1.0000
  Ti  Ti96      1.0  0.79956  0.95172  0.85523  1.0000
  I   I1        1.0  0.06546  0.12847  0.16336  1.0000
  I   I2        1.0  0.08172  0.11380  0.51172  1.0000
  I   I3        1.0  0.07798  0.09969  0.83982  1.0000
  I   I4        1.0  0.15773  0.27522  0.30693  1.0000
  I   I5        1.0  0.15907  0.28406  0.67425  1.0000
  I   I6        1.0  0.17339  0.28470  0.00632  1.0000
  I   I7        1.0  0.03743  0.69142  0.41075  1.0000
  I   I8        1.0  0.04369  0.67971  0.74748  1.0000
  I   I9        1.0  0.03264  0.69888  0.06135  1.0000
  I   I10       1.0  0.05276  0.90649  0.31427  1.0000
  I   I11       1.0  0.05028  0.92285  0.65577  1.0000
  I   I12       1.0  0.06384  0.88335  0.97585  1.0000
  I   I13       1.0  0.38915  0.06719  0.31539  1.0000
  I   I14       1.0  0.38586  0.07992  0.64379  1.0000
  I   I15       1.0  0.37610  0.11603  0.95427  1.0000
  I   I16       1.0  0.27660  0.43994  0.45352  1.0000
  I   I17       1.0  0.27581  0.46886  0.80397  1.0000
  I   I18       1.0  0.27458  0.46676  0.13533  1.0000
  I   I19       1.0  0.34639  0.62023  0.43865  1.0000
  I   I20       1.0  0.33535  0.63486  0.75843  1.0000
  I   I21       1.0  0.32337  0.63997  0.10804  1.0000
  I   I22       1.0  0.29070  0.91580  0.18643  1.0000
  I   I23       1.0  0.32075  0.89880  0.50050  1.0000
  I   I24       1.0  0.38881  0.84119  0.80538  1.0000
  I   I25       1.0  0.55458  0.16071  0.37547  1.0000
  I   I26       1.0  0.55908  0.16456  0.69639  1.0000
  I   I27       1.0  0.54702  0.14498  0.03229  1.0000
  I   I28       1.0  0.59072  0.34273  0.25071  1.0000
  I   I29       1.0  0.57631  0.35779  0.60307  1.0000
  I   I30       1.0  0.59003  0.33634  0.93085  1.0000
  I   I31       1.0  0.61471  0.60437  0.12719  1.0000
  I   I32       1.0  0.59932  0.60587  0.46349  1.0000
  I   I33       1.0  0.59111  0.60208  0.80507  1.0000
  I   I34       1.0  0.62541  0.81637  0.36514  1.0000
  I   I35       1.0  0.62109  0.82511  0.69184  1.0000
  I   I36       1.0  0.62349  0.81657  0.04488  1.0000
  I   I37       1.0  0.82824  0.13234  0.33948  1.0000
  I   I38       1.0  0.83256  0.12398  0.67856  1.0000
  I   I39       1.0  0.83536  0.10724  0.01109  1.0000
  I   I40       1.0  0.86551  0.33716  0.16586  1.0000
  I   I41       1.0  0.85270  0.35478  0.52072  1.0000
  I   I42       1.0  0.85123  0.32973  0.86046  1.0000
  I   I43       1.0  0.87224  0.61745  0.35923  1.0000
  I   I44       1.0  0.86215  0.61200  0.71915  1.0000
  I   I45       1.0  0.87352  0.61773  0.06172  1.0000
  I   I46       1.0  0.77645  0.91263  0.40849  1.0000
  I   I47       1.0  0.77644  0.92179  0.76676  1.0000
  I   I48       1.0  0.78008  0.90842  0.08217  1.0000
  I   I49       1.0  0.11738  0.15633  0.02958  1.0000
  I   I50       1.0  0.10598  0.16866  0.39058  1.0000
  I   I51       1.0  0.11807  0.15429  0.71988  1.0000
  I   I52       1.0  0.13196  0.37852  0.20462  1.0000
  I   I53       1.0  0.13567  0.35479  0.53727  1.0000
  I   I54       1.0  0.13013  0.37785  0.87593  1.0000
  I   I55       1.0  0.05537  0.75499  0.27347  1.0000
  I   I56       1.0  0.06365  0.74760  0.61919  1.0000
  I   I57       1.0  0.06779  0.75560  0.94191  1.0000
  I   I58       1.0  0.10595  0.93345  0.18726  1.0000
  I   I59       1.0  0.09997  0.95746  0.51999  1.0000
  I   I60       1.0  0.10569  0.93141  0.86972  1.0000
  I   I61       1.0  0.42174  0.12061  0.18377  1.0000
  I   I62       1.0  0.41703  0.12408  0.51133  1.0000
  I   I63       1.0  0.46313  0.09807  0.83565  1.0000
  I   I64       1.0  0.32969  0.48345  0.34866  1.0000
  I   I65       1.0  0.32146  0.50027  0.65478  1.0000
  I   I66       1.0  0.32918  0.50048  0.01079  1.0000
  I   I67       1.0  0.34376  0.70017  0.31585  1.0000
  I   I68       1.0  0.34530  0.68881  0.63893  1.0000
  I   I69       1.0  0.34413  0.70239  0.97732  1.0000
  I   I70       1.0  0.47446  0.84177  0.98035  1.0000
  I   I71       1.0  0.34385  0.95278  0.37454  1.0000
  I   I72       1.0  0.40686  0.90770  0.67748  1.0000
  I   I73       1.0  0.56599  0.21187  0.23075  1.0000
  I   I74       1.0  0.61201  0.20314  0.56120  1.0000
  I   I75       1.0  0.60260  0.20466  0.90800  1.0000
  I   I76       1.0  0.60120  0.42790  0.10192  1.0000
  I   I77       1.0  0.60862  0.40997  0.47117  1.0000
  I   I78       1.0  0.61889  0.39515  0.81622  1.0000
  I   I79       1.0  0.64475  0.65078  0.01026  1.0000
  I   I80       1.0  0.65847  0.64336  0.33568  1.0000
  I   I81       1.0  0.63645  0.64246  0.67661  1.0000
  I   I82       1.0  0.67920  0.86171  0.21983  1.0000
  I   I83       1.0  0.65749  0.87043  0.57134  1.0000
  I   I84       1.0  0.66483  0.86378  0.89328  1.0000
  I   I85       1.0  0.84284  0.18112  0.21572  1.0000
  I   I86       1.0  0.86236  0.17788  0.54701  1.0000
  I   I87       1.0  0.86241  0.17619  0.88599  1.0000
  I   I88       1.0  0.89835  0.38535  0.05404  1.0000
  I   I89       1.0  0.88031  0.39555  0.38615  1.0000
  I   I90       1.0  0.88222  0.39364  0.73685  1.0000
  I   I91       1.0  0.96719  0.59323  0.26826  1.0000
  I   I92       1.0  0.92794  0.61277  0.58573  1.0000
  I   I93       1.0  0.94947  0.58959  0.91946  1.0000
  I   I94       1.0  0.83868  0.93225  0.28853  1.0000
  I   I95       1.0  0.80957  0.95533  0.63062  1.0000
  I   I96       1.0  0.83231  0.95660  0.97791  1.0000
  I   I97       1.0  0.15718  0.10146  0.87301  1.0000
  I   I98       1.0  0.14110  0.12970  0.21462  1.0000
  I   I99       1.0  0.16412  0.11319  0.55389  1.0000
  I   I100      1.0  0.18144  0.36926  0.03901  1.0000
  I   I101      1.0  0.18575  0.34797  0.36293  1.0000
  I   I102      1.0  0.17803  0.35643  0.71007  1.0000
  I   I103      1.0  0.09821  0.72607  0.11953  1.0000
  I   I104      1.0  0.10792  0.70996  0.43640  1.0000
  I   I105      1.0  0.13040  0.68959  0.79272  1.0000
  I   I106      1.0  0.14850  0.86811  0.02597  1.0000
  I   I107      1.0  0.13914  0.89332  0.36473  1.0000
  I   I108      1.0  0.14940  0.89150  0.70651  1.0000
  I   I109      1.0  0.46167  0.07786  0.01828  1.0000
  I   I110      1.0  0.46923  0.06618  0.33609  1.0000
  I   I111      1.0  0.48126  0.07081  0.68080  1.0000
  I   I112      1.0  0.37969  0.43975  0.18029  1.0000
  I   I113      1.0  0.36155  0.42269  0.50955  1.0000
  I   I114      1.0  0.37276  0.45320  0.83239  1.0000
  I   I115      1.0  0.39328  0.67073  0.15410  1.0000
  I   I116      1.0  0.40205  0.65776  0.48582  1.0000
  I   I117      1.0  0.40043  0.67291  0.80866  1.0000
  I   I118      1.0  0.48076  0.83922  0.80378  1.0000
  I   I119      1.0  0.41606  0.82994  0.14323  1.0000
  I   I120      1.0  0.40799  0.89718  0.51137  1.0000
  I   I121      1.0  0.62254  0.16422  0.06810  1.0000
  I   I122      1.0  0.63084  0.17612  0.39564  1.0000
  I   I123      1.0  0.64537  0.14648  0.74464  1.0000
  I   I124      1.0  0.66300  0.35685  0.98101  1.0000
  I   I125      1.0  0.67038  0.34870  0.30701  1.0000
  I   I126      1.0  0.65793  0.37169  0.62557  1.0000
  I   I127      1.0  0.67372  0.58934  0.84585  1.0000
  I   I128      1.0  0.70627  0.59951  0.14248  1.0000
  I   I129      1.0  0.68176  0.59041  0.52026  1.0000
  I   I130      1.0  0.71771  0.81808  0.07095  1.0000
  I   I131      1.0  0.69478  0.84380  0.39274  1.0000
  I   I132      1.0  0.71426  0.79516  0.73268  1.0000
  I   I133      1.0  0.90079  0.14260  0.05100  1.0000
  I   I134      1.0  0.89488  0.15664  0.37062  1.0000
  I   I135      1.0  0.90013  0.16072  0.69689  1.0000
  I   I136      1.0  0.93620  0.34333  0.90285  1.0000
  I   I137      1.0  0.94299  0.35427  0.23186  1.0000
  I   I138      1.0  0.92359  0.36599  0.56642  1.0000
  I   I139      1.0  0.96619  0.54770  0.10284  1.0000
  I   I140      1.0  0.95871  0.55825  0.42631  1.0000
  I   I141      1.0  0.95677  0.56052  0.74376  1.0000
  I   I142      1.0  0.86915  0.90153  0.12547  1.0000
  I   I143      1.0  0.86388  0.90114  0.46099  1.0000
  I   I144      1.0  0.86915  0.90871  0.79303  1.0000
  I   I145      1.0  0.11428  0.06546  0.01048  1.0000
  I   I146      1.0  0.10640  0.08714  0.34366  1.0000
  I   I147      1.0  0.12749  0.05884  0.65388  1.0000
  I   I148      1.0  0.22247  0.27260  0.15303  1.0000
  I   I149      1.0  0.21532  0.27828  0.49013  1.0000
  I   I150      1.0  0.20980  0.28225  0.83639  1.0000
  I   I151      1.0  0.07864  0.65498  0.23176  1.0000
  I   I152      1.0  0.08347  0.65748  0.57208  1.0000
  I   I153      1.0  0.08870  0.65464  0.91739  1.0000
  I   I154      1.0  0.09478  0.85089  0.17035  1.0000
  I   I155      1.0  0.08388  0.87750  0.50127  1.0000
  I   I156      1.0  0.08730  0.85257  0.81408  1.0000
  I   I157      1.0  0.40866  0.05110  0.12970  1.0000
  I   I158      1.0  0.42991  0.03198  0.47539  1.0000
  I   I159      1.0  0.41884  0.04166  0.81582  1.0000
  I   I160      1.0  0.32400  0.40385  0.28855  1.0000
  I   I161      1.0  0.30527  0.42413  0.64830  1.0000
  I   I162      1.0  0.31331  0.42846  0.96155  1.0000
  I   I163      1.0  0.38455  0.60357  0.25866  1.0000
  I   I164      1.0  0.39332  0.59046  0.62460  1.0000
  I   I165      1.0  0.38884  0.61208  0.93688  1.0000
  I   I166      1.0  0.45718  0.78166  0.92248  1.0000
  I   I167      1.0  0.33979  0.87699  0.32655  1.0000
  I   I168      1.0  0.40518  0.81381  0.62035  1.0000
  I   I169      1.0  0.59049  0.10998  0.20403  1.0000
  I   I170      1.0  0.59905  0.12067  0.53242  1.0000
  I   I171      1.0  0.58571  0.12835  0.86599  1.0000
  I   I172      1.0  0.64101  0.29278  0.11437  1.0000
  I   I173      1.0  0.62225  0.31574  0.42719  1.0000
  I   I174      1.0  0.65384  0.29680  0.74841  1.0000
  I   I175      1.0  0.62960  0.57017  0.97503  1.0000
  I   I176      1.0  0.66513  0.56005  0.28362  1.0000
  I   I177      1.0  0.61934  0.56194  0.63338  1.0000
  I   I178      1.0  0.67547  0.78000  0.19435  1.0000
  I   I179      1.0  0.66601  0.78054  0.50630  1.0000
  I   I180      1.0  0.65238  0.78319  0.87564  1.0000
  I   I181      1.0  0.88861  0.08526  0.16185  1.0000
  I   I182      1.0  0.88037  0.08952  0.51025  1.0000
  I   I183      1.0  0.88517  0.08589  0.82737  1.0000
  I   I184      1.0  0.91099  0.29925  0.01438  1.0000
  I   I185      1.0  0.89759  0.30460  0.35233  1.0000
  I   I186      1.0  0.89628  0.30381  0.68139  1.0000
  I   I187      1.0  0.90036  0.54908  0.21315  1.0000
  I   I188      1.0  0.87380  0.56790  0.54389  1.0000
  I   I189      1.0  0.88744  0.55908  0.89884  1.0000
  I   I190      1.0  0.82006  0.85774  0.25303  1.0000
  I   I191      1.0  0.80507  0.87301  0.59496  1.0000
  I   I192      1.0  0.81138  0.88386  0.92483  1.0000
  I   I193      1.0  0.20604  0.07036  0.07479  1.0000
  I   I194      1.0  0.21504  0.07363  0.41887  1.0000
  I   I195      1.0  0.21285  0.06819  0.72047  1.0000
  I   I196      1.0  0.24480  0.34056  0.22369  1.0000
  I   I197      1.0  0.23878  0.35024  0.56905  1.0000
  I   I198      1.0  0.23592  0.35903  0.87449  1.0000
  I   I199      1.0  0.15596  0.68658  0.28792  1.0000
  I   I200      1.0  0.16861  0.67610  0.63422  1.0000
  I   I201      1.0  0.16608  0.67069  0.96979  1.0000
  I   I202      1.0  0.19354  0.83983  0.21164  1.0000
  I   I203      1.0  0.18860  0.87730  0.53670  1.0000
  I   I204      1.0  0.19054  0.83356  0.85408  1.0000
  I   I205      1.0  0.52365  0.00582  0.19309  1.0000
  I   I206      1.0  0.52004  0.03535  0.52648  1.0000
  I   I207      1.0  0.51740  0.99515  0.91940  1.0000
  I   I208      1.0  0.41781  0.38655  0.36057  1.0000
  I   I209      1.0  0.41520  0.40275  0.66889  1.0000
  I   I210      1.0  0.41734  0.39968  0.02212  1.0000
  I   I211      1.0  0.45746  0.62984  0.31540  1.0000
  I   I212      1.0  0.45714  0.63536  0.66281  1.0000
  I   I213      1.0  0.43729  0.66175  0.99605  1.0000
  I   I214      1.0  0.48486  0.74747  0.07621  1.0000
  I   I215      1.0  0.44368  0.86399  0.35942  1.0000
  I   I216      1.0  0.49326  0.83184  0.62880  1.0000
  I   I217      1.0  0.67577  0.13061  0.24262  1.0000
  I   I218      1.0  0.69706  0.08858  0.57920  1.0000
  I   I219      1.0  0.69428  0.11127  0.93153  1.0000
  I   I220      1.0  0.72979  0.28750  0.18001  1.0000
  I   I221      1.0  0.71009  0.33110  0.49024  1.0000
  I   I222      1.0  0.72026  0.31783  0.84829  1.0000
  I   I223      1.0  0.73674  0.55067  0.98117  1.0000
  I   I224      1.0  0.74542  0.54799  0.37760  1.0000
  I   I225      1.0  0.72276  0.53967  0.70257  1.0000
  I   I226      1.0  0.76213  0.78143  0.26395  1.0000
  I   I227      1.0  0.75497  0.77495  0.58084  1.0000
  I   I228      1.0  0.75165  0.78085  0.90836  1.0000
  I   I229      1.0  0.95276  0.11614  0.22744  1.0000
  I   I230      1.0  0.96740  0.10287  0.56785  1.0000
  I   I231      1.0  0.95915  0.10092  0.90006  1.0000
  I   I232      1.0  0.00340  0.30486  0.08050  1.0000
  I   I233      1.0  0.98124  0.35183  0.43849  1.0000
  I   I234      1.0  0.97394  0.32765  0.73259  1.0000
  I   I235      1.0  0.00089  0.48530  0.31122  1.0000
  I   I236      1.0  0.98150  0.50884  0.60002  1.0000
  I   I237      1.0  0.99050  0.49210  0.95742  1.0000
  I   I238      1.0  0.91712  0.83072  0.30244  1.0000
  I   I239      1.0  0.91055  0.86111  0.63851  1.0000
  I   I240      1.0  0.91356  0.85576  0.96286  1.0000
  I   I241      1.0  0.14998  0.02708  0.15731  1.0000
  I   I242      1.0  0.16882  0.02072  0.46727  1.0000
  I   I243      1.0  0.18215  0.00435  0.79686  1.0000
  I   I244      1.0  0.27014  0.24993  0.30243  1.0000
  I   I245      1.0  0.26355  0.26144  0.65392  1.0000
  I   I246      1.0  0.27446  0.27419  0.98725  1.0000
  I   I247      1.0  0.13443  0.61001  0.35461  1.0000
  I   I248      1.0  0.14893  0.60391  0.71955  1.0000
  I   I249      1.0  0.14832  0.61029  0.08015  1.0000
  I   I250      1.0  0.13989  0.80071  0.31533  1.0000
  I   I251      1.0  0.14725  0.81810  0.62941  1.0000
  I   I252      1.0  0.14610  0.77996  0.92254  1.0000
  I   I253      1.0  0.45964  0.97908  0.26258  1.0000
  I   I254      1.0  0.47049  0.98734  0.62473  1.0000
  I   I255      1.0  0.42874  0.00268  0.97751  1.0000
  I   I256      1.0  0.35780  0.34216  0.43467  1.0000
  I   I257      1.0  0.36930  0.36721  0.76021  1.0000
  I   I258      1.0  0.34428  0.37328  0.10273  1.0000
  I   I259      1.0  0.44975  0.56516  0.42040  1.0000
  I   I260      1.0  0.44599  0.56398  0.78042  1.0000
  I   I261      1.0  0.43458  0.56409  0.07946  1.0000
  I   I262      1.0  0.37821  0.77617  0.02840  1.0000
  I   I263      1.0  0.40301  0.80714  0.44124  1.0000
  I   I264      1.0  0.48311  0.75330  0.71563  1.0000
  I   I265      1.0  0.64776  0.07533  0.34756  1.0000
  I   I266      1.0  0.63565  0.05911  0.66938  1.0000
  I   I267      1.0  0.64111  0.06770  0.01482  1.0000
  I   I268      1.0  0.67367  0.24253  0.27125  1.0000
  I   I269      1.0  0.66973  0.26750  0.57105  1.0000
  I   I270      1.0  0.68672  0.24890  0.89110  1.0000
  I   I271      1.0  0.70213  0.50152  0.10823  1.0000
  I   I272      1.0  0.67703  0.51276  0.42457  1.0000
  I   I273      1.0  0.67158  0.49653  0.76213  1.0000
  I   I274      1.0  0.71765  0.72641  0.33826  1.0000
  I   I275      1.0  0.70433  0.71666  0.64137  1.0000
  I   I276      1.0  0.71175  0.73307  0.01492  1.0000
  I   I277      1.0  0.93663  0.04384  0.31408  1.0000
  I   I278      1.0  0.93243  0.04955  0.67113  1.0000
  I   I279      1.0  0.94296  0.03372  0.99573  1.0000
  I   I280      1.0  0.96139  0.24743  0.15890  1.0000
  I   I281      1.0  0.95962  0.26487  0.48800  1.0000
  I   I282      1.0  0.95128  0.25086  0.82343  1.0000
  I   I283      1.0  0.90675  0.50719  0.37317  1.0000
  I   I284      1.0  0.90037  0.50726  0.70743  1.0000
  I   I285      1.0  0.90099  0.50409  0.05193  1.0000
  I   I286      1.0  0.85186  0.80710  0.40867  1.0000
  I   I287      1.0  0.85642  0.82165  0.73664  1.0000
  I   I288      1.0  0.86573  0.80806  0.04854  1.0000
  I   I289      1.0  0.02485  0.14093  0.98307  1.0000
  I   I290      1.0  0.01418  0.16377  0.32454  1.0000
  I   I291      1.0  0.02820  0.15435  0.65364  1.0000
  I   I292      1.0  0.10215  0.30702  0.14678  1.0000
  I   I293      1.0  0.12732  0.27219  0.48550  1.0000
  I   I294      1.0  0.10782  0.29501  0.84661  1.0000
  I   I295      1.0  0.97346  0.72810  0.21127  1.0000
  I   I296      1.0  0.97185  0.75394  0.55130  1.0000
  I   I297      1.0  0.98754  0.73619  0.89522  1.0000
  I   I298      1.0  0.01599  0.93017  0.11690  1.0000
  I   I299      1.0  0.99783  0.96421  0.45348  1.0000
  I   I300      1.0  0.00748  0.97667  0.80441  1.0000
  I   I301      1.0  0.32334  0.14839  0.10599  1.0000
  I   I302      1.0  0.32552  0.12352  0.43565  1.0000
  I   I303      1.0  0.34549  0.13036  0.78447  1.0000
  I   I304      1.0  0.23364  0.51168  0.28012  1.0000
  I   I305      1.0  0.22126  0.51315  0.57676  1.0000
  I   I306      1.0  0.23041  0.53044  0.94166  1.0000
  I   I307      1.0  0.27617  0.66673  0.27534  1.0000
  I   I308      1.0  0.28173  0.65115  0.58176  1.0000
  I   I309      1.0  0.28478  0.64979  0.90509  1.0000
  I   I310      1.0  0.36950  0.87079  0.98686  1.0000
  I   I311      1.0  0.27145  0.00958  0.25480  1.0000
  I   I312      1.0  0.30418  0.90194  0.66903  1.0000
  I   I313      1.0  0.48537  0.18862  0.17378  1.0000
  I   I314      1.0  0.50697  0.21233  0.52553  1.0000
  I   I315      1.0  0.50358  0.21954  0.84393  1.0000
  I   I316      1.0  0.53515  0.38872  0.07169  1.0000
  I   I317      1.0  0.52048  0.41012  0.36251  1.0000
  I   I318      1.0  0.54382  0.37124  0.76477  1.0000
  I   I319      1.0  0.54200  0.66465  0.94405  1.0000
  I   I320      1.0  0.56771  0.64838  0.28018  1.0000
  I   I321      1.0  0.54469  0.66549  0.62673  1.0000
  I   I322      1.0  0.58417  0.87469  0.20337  1.0000
  I   I323      1.0  0.56954  0.86398  0.49598  1.0000
  I   I324      1.0  0.56537  0.88538  0.84358  1.0000
  I   I325      1.0  0.76987  0.16226  0.15845  1.0000
  I   I326      1.0  0.76927  0.16930  0.50088  1.0000
  I   I327      1.0  0.78485  0.14922  0.83602  1.0000
  I   I328      1.0  0.79497  0.37443  0.00464  1.0000
  I   I329      1.0  0.80123  0.38274  0.29784  1.0000
  I   I330      1.0  0.79523  0.39036  0.66210  1.0000
  I   I331      1.0  0.85589  0.66544  0.19847  1.0000
  I   I332      1.0  0.82297  0.67312  0.49887  1.0000
  I   I333      1.0  0.83471  0.66583  0.87673  1.0000
  I   I334      1.0  0.73084  0.95928  0.23202  1.0000
  I   I335      1.0  0.72230  0.96918  0.55694  1.0000
  I   I336      1.0  0.73541  0.99964  0.89604  1.0000
  I   I337      1.0  0.05495  0.20626  0.88735  1.0000
  I   I338      1.0  0.05320  0.22579  0.24390  1.0000
  I   I339      1.0  0.06865  0.21534  0.57829  1.0000
  I   I340      1.0  0.07728  0.39673  0.05084  1.0000
  I   I341      1.0  0.08150  0.37017  0.40858  1.0000
  I   I342      1.0  0.07233  0.37554  0.74195  1.0000
  I   I343      1.0  0.99843  0.79559  0.12946  1.0000
  I   I344      1.0  0.02246  0.79656  0.46007  1.0000
  I   I345      1.0  0.02311  0.78592  0.79401  1.0000
  I   I346      1.0  0.06217  0.98374  0.04605  1.0000
  I   I347      1.0  0.06875  0.99655  0.36627  1.0000
  I   I348      1.0  0.08049  0.99616  0.72931  1.0000
  I   I349      1.0  0.39550  0.18537  0.04364  1.0000
  I   I350      1.0  0.39388  0.16177  0.36988  1.0000
  I   I351      1.0  0.40156  0.17215  0.71530  1.0000
  I   I352      1.0  0.30282  0.54191  0.20715  1.0000
  I   I353      1.0  0.28893  0.53454  0.50412  1.0000
  I   I354      1.0  0.30345  0.55132  0.85494  1.0000
  I   I355      1.0  0.28531  0.74023  0.17345  1.0000
  I   I356      1.0  0.28933  0.72667  0.49169  1.0000
  I   I357      1.0  0.27435  0.73125  0.82955  1.0000
  I   I358      1.0  0.40717  0.93131  0.86596  1.0000
  I   I359      1.0  0.37779  0.95438  0.21644  1.0000
  I   I360      1.0  0.31069  0.98064  0.59511  1.0000
  I   I361      1.0  0.51360  0.24579  0.07727  1.0000
  I   I362      1.0  0.53908  0.26788  0.43178  1.0000
  I   I363      1.0  0.55547  0.26060  0.74793  1.0000
  I   I364      1.0  0.55536  0.46070  0.94265  1.0000
  I   I365      1.0  0.59146  0.44205  0.31202  1.0000
  I   I366      1.0  0.55804  0.44943  0.67824  1.0000
  I   I367      1.0  0.59976  0.69641  0.84832  1.0000
  I   I368      1.0  0.61990  0.69685  0.17979  1.0000
  I   I369      1.0  0.60588  0.69359  0.52151  1.0000
  I   I370      1.0  0.61488  0.91150  0.06641  1.0000
  I   I371      1.0  0.60288  0.92054  0.40537  1.0000
  I   I372      1.0  0.62896  0.91202  0.74938  1.0000
  I   I373      1.0  0.79855  0.21827  0.04013  1.0000
  I   I374      1.0  0.79492  0.23494  0.41943  1.0000
  I   I375      1.0  0.79571  0.22755  0.76124  1.0000
  I   I376      1.0  0.83980  0.42587  0.89670  1.0000
  I   I377      1.0  0.84968  0.43635  0.22802  1.0000
  I   I378      1.0  0.83381  0.45795  0.60436  1.0000
  I   I379      1.0  0.94552  0.65443  0.13392  1.0000
  I   I380      1.0  0.91073  0.67521  0.44385  1.0000
  I   I381      1.0  0.91789  0.65810  0.76861  1.0000
  I   I382      1.0  0.79325  0.99377  0.15869  1.0000
  I   I383      1.0  0.79104  0.99823  0.47537  1.0000
  I   I384      1.0  0.81448  0.00196  0.80169  1.0000
