data_image0
_chemical_formula_structural       Ti96I384
_chemical_formula_sum              "Ti96 I384"
_cell_length_a       38.2216
_cell_length_b       37.5789
_cell_length_c       22.1731
_cell_angle_alpha    88.7757
_cell_angle_beta     88.7757
_cell_angle_gamma    62.1586

_space_group_name_H-M_alt    "P 1"
_space_group_IT_number       1

loop_
  _space_group_symop_operation_xyz
  'x, y, z'

loop_
  _atom_site_type_symbol
  _atom_site_label
  _atom_site_symmetry_multiplicity
  _atom_site_fract_x
  _atom_site_fract_y
  _atom_site_fract_z
  _atom_site_occupancy
  Ti  Ti1       1.0  0.18552  0.09101  0.23102  1.0000
  Ti  Ti2       1.0  0.17634  0.07653  0.57338  1.0000
  Ti  Ti3       1.0  0.17685  0.09154  0.91042  1.0000
  Ti  Ti4       1.0  0.17690  0.33972  0.27700  1.0000
  Ti  Ti5       1.0  0.16243  0.36545  0.58231  1.0000
  Ti  Ti6       1.0  0.17280  0.34595  0.92073  1.0000
  Ti  Ti7       1.0  0.18287  0.56633  0.23134  1.0000
  Ti  Ti8       1.0  0.17049  0.57370  0.58674  1.0000
  Ti  Ti9       1.0  0.16635  0.58138  0.91053  1.0000
  Ti  Ti10      1.0  0.11976  0.85829  0.26080  1.0000
  Ti  Ti11      1.0  0.12604  0.86861  0.58306  1.0000
  Ti  Ti12      1.0  0.12204  0.86368  0.92169  1.0000
  Ti  Ti13      1.0  0.40793  0.08344  0.29228  1.0000
  Ti  Ti14      1.0  0.42284  0.09559  0.63402  1.0000
  Ti  Ti15      1.0  0.39716  0.09319  0.96466  1.0000
  Ti  Ti16      1.0  0.43578  0.33277  0.26094  1.0000
  Ti  Ti17      1.0  0.44348  0.32502  0.59712  1.0000
  Ti  Ti18      1.0  0.42781  0.33113  0.93433  1.0000
  Ti  Ti19      1.0  0.36201  0.62815  0.22490  1.0000
  Ti  Ti20      1.0  0.37037  0.62311  0.56683  1.0000
  Ti  Ti21      1.0  0.36120  0.63615  0.89569  1.0000
  Ti  Ti22      1.0  0.41861  0.82494  0.18726  1.0000
  Ti  Ti23      1.0  0.43201  0.81588  0.51452  1.0000
  Ti  Ti24      1.0  0.43190  0.80134  0.86402  1.0000
  Ti  Ti25      1.0  0.68674  0.07013  0.31631  1.0000
  Ti  Ti26      1.0  0.68732  0.06876  0.66261  1.0000
  Ti  Ti27      1.0  0.68052  0.07031  0.98116  1.0000
  Ti  Ti28      1.0  0.61265  0.37220  0.22848  1.0000
  Ti  Ti29      1.0  0.59502  0.38052  0.58981  1.0000
  Ti  Ti30      1.0  0.60101  0.38542  0.89393  1.0000
  Ti  Ti31      1.0  0.67109  0.56163  0.21105  1.0000
  Ti  Ti32      1.0  0.67006  0.55995  0.54918  1.0000
  Ti  Ti33      1.0  0.67855  0.57444  0.88997  1.0000
  Ti  Ti34      1.0  0.65423  0.84449  0.28192  1.0000
  Ti  Ti35      1.0  0.65671  0.86431  0.60387  1.0000
  Ti  Ti36      1.0  0.65774  0.84619  0.93012  1.0000
  Ti  Ti37      1.0  0.85474  0.14043  0.27331  1.0000
  Ti  Ti38      1.0  0.86175  0.15600  0.58895  1.0000
  Ti  Ti39      1.0  0.85770  0.16061  0.93412  1.0000
  Ti  Ti40      1.0  0.92078  0.33410  0.18051  1.0000
  Ti  Ti41      1.0  0.91075  0.34402  0.51850  1.0000
  Ti  Ti42      1.0  0.91504  0.34613  0.86296  1.0000
  Ti  Ti43      1.0  0.91252  0.56614  0.23494  1.0000
  Ti  Ti44      1.0  0.91913  0.57270  0.57463  1.0000
  Ti  Ti45      1.0  0.91270  0.56261  0.91151  1.0000
  Ti  Ti46      1.0  0.91681  0.82219  0.28932  1.0000
  Ti  Ti47      1.0  0.91619  0.81595  0.61760  1.0000
  Ti  Ti48      1.0  0.91351  0.81218  0.95119  1.0000
  Ti  Ti49      1.0  0.12136  0.16280  0.06293  1.0000
  Ti  Ti50      1.0  0.12113  0.15522  0.41046  1.0000
  Ti  Ti51      1.0  0.12685  0.15698  0.74106  1.0000
  Ti  Ti52      1.0  0.11204  0.42180  0.08043  1.0000
  Ti  Ti53      1.0  0.09217  0.41699  0.41888  1.0000
  Ti  Ti54      1.0  0.09666  0.40591  0.76710  1.0000
  Ti  Ti55      1.0  0.10501  0.63811  0.07117  1.0000
  Ti  Ti56      1.0  0.11548  0.62544  0.40883  1.0000
  Ti  Ti57      1.0  0.09491  0.64604  0.73895  1.0000
  Ti  Ti58      1.0  0.05734  0.93733  0.08690  1.0000
  Ti  Ti59      1.0  0.06449  0.93169  0.42257  1.0000
  Ti  Ti60      1.0  0.06895  0.93703  0.76082  1.0000
  Ti  Ti61      1.0  0.33071  0.14917  0.12748  1.0000
  Ti  Ti62      1.0  0.34483  0.14549  0.46596  1.0000
  Ti  Ti63      1.0  0.34762  0.16659  0.79971  1.0000
  Ti  Ti64      1.0  0.36952  0.38714  0.09467  1.0000
  Ti  Ti65      1.0  0.37482  0.38734  0.43528  1.0000
  Ti  Ti66      1.0  0.37127  0.39157  0.77164  1.0000
  Ti  Ti67      1.0  0.29034  0.68498  0.05943  1.0000
  Ti  Ti68      1.0  0.30104  0.67600  0.40107  1.0000
  Ti  Ti69      1.0  0.30379  0.66276  0.72568  1.0000
  Ti  Ti70      1.0  0.36398  0.88235  0.01202  1.0000
  Ti  Ti71      1.0  0.36124  0.88332  0.35959  1.0000
  Ti  Ti72      1.0  0.38320  0.86782  0.68298  1.0000
  Ti  Ti73      1.0  0.62274  0.14020  0.15106  1.0000
  Ti  Ti74      1.0  0.62963  0.12250  0.48719  1.0000
  Ti  Ti75      1.0  0.61608  0.13850  0.82290  1.0000
  Ti  Ti76      1.0  0.53800  0.44234  0.07065  1.0000
  Ti  Ti77      1.0  0.53901  0.44344  0.41380  1.0000
  Ti  Ti78      1.0  0.54146  0.45539  0.75081  1.0000
  Ti  Ti79      1.0  0.61469  0.64153  0.06185  1.0000
  Ti  Ti80      1.0  0.60495  0.62464  0.37780  1.0000
  Ti  Ti81      1.0  0.60819  0.63309  0.72513  1.0000
  Ti  Ti82      1.0  0.59672  0.90910  0.10011  1.0000
  Ti  Ti83      1.0  0.60265  0.92088  0.43588  1.0000
  Ti  Ti84      1.0  0.60365  0.91726  0.77551  1.0000
  Ti  Ti85      1.0  0.78937  0.20601  0.11013  1.0000
  Ti  Ti86      1.0  0.79173  0.21175  0.43483  1.0000
  Ti  Ti87      1.0  0.79120  0.22908  0.75754  1.0000
  Ti  Ti88      1.0  0.85348  0.39779  0.02109  1.0000
  Ti  Ti89      1.0  0.84750  0.39708  0.34664  1.0000
  Ti  Ti90      1.0  0.84672  0.39709  0.69659  1.0000
  Ti  Ti91      1.0  0.83861  0.62688  0.08506  1.0000
  Ti  Ti92      1.0  0.85741  0.64189  0.40829  1.0000
  Ti  Ti93      1.0  0.84455  0.63597  0.73974  1.0000
  Ti  Ti94      1.0  0.85868  0.88959  0.10828  1.0000
  Ti  Ti95      1.0  0.86337  0.89775  0.45564  1.0000
  Ti  Ti96      1.0  0.86247  0.89173  0.78031  1.0000
  I   I1        1.0  0.11025  0.12661  0.29870  1.0000
  I   I2        1.0  0.09935  0.13383  0.63607  1.0000
  I   I3        1.0  0.09843  0.14397  0.96372  1.0000
  I   I4        1.0  0.08983  0.37778  0.32115  1.0000
  I   I5        1.0  0.09031  0.37382  0.65191  1.0000
  I   I6        1.0  0.09782  0.37648  0.99509  1.0000
  I   I7        1.0  0.10764  0.59207  0.30338  1.0000
  I   I8        1.0  0.08939  0.60888  0.64095  1.0000
  I   I9        1.0  0.09131  0.60737  0.96718  1.0000
  I   I10       1.0  0.04815  0.89957  0.32307  1.0000
  I   I11       1.0  0.05319  0.90862  0.65656  1.0000
  I   I12       1.0  0.05040  0.89951  0.98142  1.0000
  I   I13       1.0  0.33531  0.10577  0.37026  1.0000
  I   I14       1.0  0.34600  0.13866  0.68671  1.0000
  I   I15       1.0  0.32315  0.11155  0.02591  1.0000
  I   I16       1.0  0.35486  0.37036  0.31506  1.0000
  I   I17       1.0  0.37153  0.34344  0.67409  1.0000
  I   I18       1.0  0.34779  0.35987  0.99265  1.0000
  I   I19       1.0  0.28363  0.64911  0.28593  1.0000
  I   I20       1.0  0.29695  0.62376  0.62154  1.0000
  I   I21       1.0  0.29427  0.64039  0.95141  1.0000
  I   I22       1.0  0.33950  0.86156  0.24419  1.0000
  I   I23       1.0  0.35676  0.85032  0.58053  1.0000
  I   I24       1.0  0.35021  0.83960  0.92081  1.0000
  I   I25       1.0  0.61485  0.08568  0.38283  1.0000
  I   I26       1.0  0.59978  0.10810  0.71431  1.0000
  I   I27       1.0  0.59816  0.11147  0.05519  1.0000
  I   I28       1.0  0.53289  0.40068  0.31660  1.0000
  I   I29       1.0  0.51760  0.42245  0.65415  1.0000
  I   I30       1.0  0.51840  0.42011  0.96355  1.0000
  I   I31       1.0  0.59805  0.58866  0.27098  1.0000
  I   I32       1.0  0.60254  0.59034  0.62640  1.0000
  I   I33       1.0  0.60447  0.61393  0.94821  1.0000
  I   I34       1.0  0.57926  0.89179  0.34222  1.0000
  I   I35       1.0  0.57906  0.88680  0.67892  1.0000
  I   I36       1.0  0.58561  0.87345  0.00049  1.0000
  I   I37       1.0  0.77483  0.17416  0.34680  1.0000
  I   I38       1.0  0.78493  0.18742  0.66043  1.0000
  I   I39       1.0  0.78160  0.18125  0.98976  1.0000
  I   I40       1.0  0.84520  0.35782  0.23471  1.0000
  I   I41       1.0  0.83395  0.37079  0.57707  1.0000
  I   I42       1.0  0.83756  0.36850  0.91762  1.0000
  I   I43       1.0  0.83918  0.60287  0.31772  1.0000
  I   I44       1.0  0.83177  0.61389  0.62487  1.0000
  I   I45       1.0  0.83127  0.59296  0.97425  1.0000
  I   I46       1.0  0.84082  0.87014  0.36304  1.0000
  I   I47       1.0  0.83778  0.86440  0.68028  1.0000
  I   I48       1.0  0.83630  0.86031  0.02047  1.0000
  I   I49       1.0  0.15057  0.17163  0.18429  1.0000
  I   I50       1.0  0.16150  0.15652  0.50235  1.0000
  I   I51       1.0  0.15685  0.16595  0.83771  1.0000
  I   I52       1.0  0.14733  0.42864  0.17629  1.0000
  I   I53       1.0  0.11901  0.44440  0.52553  1.0000
  I   I54       1.0  0.13123  0.42243  0.86690  1.0000
  I   I55       1.0  0.14450  0.64657  0.16608  1.0000
  I   I56       1.0  0.14786  0.64605  0.50407  1.0000
  I   I57       1.0  0.12142  0.66535  0.84327  1.0000
  I   I58       1.0  0.09014  0.95296  0.18538  1.0000
  I   I59       1.0  0.10026  0.94152  0.52948  1.0000
  I   I60       1.0  0.10456  0.93891  0.86187  1.0000
  I   I61       1.0  0.36558  0.15890  0.22782  1.0000
  I   I62       1.0  0.38653  0.17527  0.56203  1.0000
  I   I63       1.0  0.37680  0.17028  0.91055  1.0000
  I   I64       1.0  0.39228  0.41143  0.20306  1.0000
  I   I65       1.0  0.40873  0.40065  0.53751  1.0000
  I   I66       1.0  0.39444  0.40762  0.87780  1.0000
  I   I67       1.0  0.31459  0.70966  0.17518  1.0000
  I   I68       1.0  0.32929  0.69264  0.49797  1.0000
  I   I69       1.0  0.32100  0.70433  0.81921  1.0000
  I   I70       1.0  0.39353  0.90395  0.12006  1.0000
  I   I71       1.0  0.40127  0.89774  0.45887  1.0000
  I   I72       1.0  0.40607  0.87602  0.79871  1.0000
  I   I73       1.0  0.66430  0.14989  0.24833  1.0000
  I   I74       1.0  0.65677  0.14234  0.58615  1.0000
  I   I75       1.0  0.65695  0.14385  0.91354  1.0000
  I   I76       1.0  0.56962  0.45214  0.18089  1.0000
  I   I77       1.0  0.55846  0.45845  0.51766  1.0000
  I   I78       1.0  0.57625  0.47202  0.85170  1.0000
  I   I79       1.0  0.65627  0.63879  0.16454  1.0000
  I   I80       1.0  0.63676  0.64031  0.47743  1.0000
  I   I81       1.0  0.64431  0.65267  0.82368  1.0000
  I   I82       1.0  0.62221  0.92623  0.20758  1.0000
  I   I83       1.0  0.62422  0.93988  0.54890  1.0000
  I   I84       1.0  0.62888  0.93263  0.88094  1.0000
  I   I85       1.0  0.81805  0.22532  0.21046  1.0000
  I   I86       1.0  0.82112  0.23905  0.53268  1.0000
  I   I87       1.0  0.83124  0.23571  0.86821  1.0000
  I   I88       1.0  0.88865  0.41548  0.12338  1.0000
  I   I89       1.0  0.87159  0.41649  0.45665  1.0000
  I   I90       1.0  0.87610  0.41805  0.78618  1.0000
  I   I91       1.0  0.87414  0.64467  0.17432  1.0000
  I   I92       1.0  0.89354  0.64942  0.50687  1.0000
  I   I93       1.0  0.87655  0.64007  0.84489  1.0000
  I   I94       1.0  0.88699  0.90057  0.22324  1.0000
  I   I95       1.0  0.91280  0.88634  0.55563  1.0000
  I   I96       1.0  0.90707  0.88375  0.88221  1.0000
  I   I97       1.0  0.20251  0.11516  0.01603  1.0000
  I   I98       1.0  0.20153  0.11219  0.34431  1.0000
  I   I99       1.0  0.19561  0.10500  0.66990  1.0000
  I   I100      1.0  0.18902  0.37676  0.02515  1.0000
  I   I101      1.0  0.17095  0.39655  0.35768  1.0000
  I   I102      1.0  0.16480  0.40159  0.69310  1.0000
  I   I103      1.0  0.18014  0.61572  0.00842  1.0000
  I   I104      1.0  0.20011  0.59489  0.33380  1.0000
  I   I105      1.0  0.17462  0.61519  0.68396  1.0000
  I   I106      1.0  0.13647  0.90020  0.01856  1.0000
  I   I107      1.0  0.14471  0.89317  0.35379  1.0000
  I   I108      1.0  0.14645  0.88588  0.70192  1.0000
  I   I109      1.0  0.40742  0.12340  0.07221  1.0000
  I   I110      1.0  0.41837  0.11077  0.39967  1.0000
  I   I111      1.0  0.42933  0.12892  0.75154  1.0000
  I   I112      1.0  0.44861  0.36279  0.03525  1.0000
  I   I113      1.0  0.44756  0.36275  0.37234  1.0000
  I   I114      1.0  0.46776  0.33853  0.71045  1.0000
  I   I115      1.0  0.35817  0.68311  0.00728  1.0000
  I   I116      1.0  0.37133  0.65899  0.33384  1.0000
  I   I117      1.0  0.37796  0.66159  0.66305  1.0000
  I   I118      1.0  0.44160  0.84568  0.95031  1.0000
  I   I119      1.0  0.43351  0.85691  0.29330  1.0000
  I   I120      1.0  0.45660  0.83710  0.62238  1.0000
  I   I121      1.0  0.69572  0.09715  0.08477  1.0000
  I   I122      1.0  0.70746  0.09661  0.41417  1.0000
  I   I123      1.0  0.69643  0.09834  0.76726  1.0000
  I   I124      1.0  0.61293  0.40924  0.01136  1.0000
  I   I125      1.0  0.62237  0.39655  0.33798  1.0000
  I   I126      1.0  0.61628  0.41442  0.69456  1.0000
  I   I127      1.0  0.69408  0.60159  0.99579  1.0000
  I   I128      1.0  0.68239  0.59247  0.32165  1.0000
  I   I129      1.0  0.68151  0.59867  0.64577  1.0000
  I   I130      1.0  0.67746  0.86607  0.03946  1.0000
  I   I131      1.0  0.67913  0.87102  0.38084  1.0000
  I   I132      1.0  0.67845  0.89210  0.71025  1.0000
  I   I133      1.0  0.86750  0.18384  0.04677  1.0000
  I   I134      1.0  0.86825  0.17664  0.37777  1.0000
  I   I135      1.0  0.87095  0.19839  0.69745  1.0000
  I   I136      1.0  0.92446  0.38754  0.95086  1.0000
  I   I137      1.0  0.92389  0.37707  0.29941  1.0000
  I   I138      1.0  0.92012  0.37290  0.62545  1.0000
  I   I139      1.0  0.91693  0.59244  0.02257  1.0000
  I   I140      1.0  0.92886  0.60420  0.33157  1.0000
  I   I141      1.0  0.93052  0.60119  0.67979  1.0000
  I   I142      1.0  0.93967  0.84188  0.04444  1.0000
  I   I143      1.0  0.94479  0.84339  0.39065  1.0000
  I   I144      1.0  0.94010  0.83428  0.72185  1.0000
  I   I145      1.0  0.14099  0.08899  0.12934  1.0000
  I   I146      1.0  0.13306  0.07975  0.47591  1.0000
  I   I147      1.0  0.14068  0.07819  0.80832  1.0000
  I   I148      1.0  0.15467  0.31946  0.18159  1.0000
  I   I149      1.0  0.13242  0.34504  0.48322  1.0000
  I   I150      1.0  0.14415  0.32893  0.81959  1.0000
  I   I151      1.0  0.14392  0.55404  0.12857  1.0000
  I   I152      1.0  0.14864  0.55161  0.47753  1.0000
  I   I153      1.0  0.13261  0.56758  0.81299  1.0000
  I   I154      1.0  0.07848  0.86116  0.15664  1.0000
  I   I155      1.0  0.09342  0.85616  0.48217  1.0000
  I   I156      1.0  0.07321  0.86486  0.82189  1.0000
  I   I157      1.0  0.37214  0.07034  0.19044  1.0000
  I   I158      1.0  0.39022  0.08036  0.53815  1.0000
  I   I159      1.0  0.36056  0.09161  0.85625  1.0000
  I   I160      1.0  0.40118  0.30835  0.16282  1.0000
  I   I161      1.0  0.41266  0.30887  0.48130  1.0000
  I   I162      1.0  0.38795  0.31653  0.83518  1.0000
  I   I163      1.0  0.32908  0.60901  0.12269  1.0000
  I   I164      1.0  0.34784  0.59425  0.45938  1.0000
  I   I165      1.0  0.34420  0.59810  0.79471  1.0000
  I   I166      1.0  0.40036  0.80617  0.08462  1.0000
  I   I167      1.0  0.39909  0.80298  0.41130  1.0000
  I   I168      1.0  0.40119  0.79185  0.74559  1.0000
  I   I169      1.0  0.64119  0.06578  0.22037  1.0000
  I   I170      1.0  0.66083  0.04877  0.55579  1.0000
  I   I171      1.0  0.63795  0.06373  0.88417  1.0000
  I   I172      1.0  0.57880  0.36566  0.12253  1.0000
  I   I173      1.0  0.57280  0.36737  0.48143  1.0000
  I   I174      1.0  0.56234  0.37899  0.79427  1.0000
  I   I175      1.0  0.63930  0.56000  0.10493  1.0000
  I   I176      1.0  0.63778  0.54216  0.44868  1.0000
  I   I177      1.0  0.64169  0.56110  0.79472  1.0000
  I   I178      1.0  0.61567  0.83863  0.18161  1.0000
  I   I179      1.0  0.62328  0.84714  0.51949  1.0000
  I   I180      1.0  0.62458  0.84117  0.83170  1.0000
  I   I181      1.0  0.81732  0.12757  0.18227  1.0000
  I   I182      1.0  0.82985  0.12797  0.51192  1.0000
  I   I183      1.0  0.83263  0.14724  0.81519  1.0000
  I   I184      1.0  0.90291  0.31683  0.06507  1.0000
  I   I185      1.0  0.87472  0.32269  0.42504  1.0000
  I   I186      1.0  0.88817  0.31684  0.75664  1.0000
  I   I187      1.0  0.86486  0.55106  0.15689  1.0000
  I   I188      1.0  0.87466  0.56822  0.48202  1.0000
  I   I189      1.0  0.87619  0.55461  0.79401  1.0000
  I   I190      1.0  0.87889  0.81541  0.18155  1.0000
  I   I191      1.0  0.87600  0.82177  0.51505  1.0000
  I   I192      1.0  0.87354  0.81698  0.84645  1.0000
  I   I193      1.0  0.25552  0.06782  0.18449  1.0000
  I   I194      1.0  0.24707  0.04159  0.53464  1.0000
  I   I195      1.0  0.24736  0.06114  0.86830  1.0000
  I   I196      1.0  0.24432  0.33143  0.23278  1.0000
  I   I197      1.0  0.22241  0.37389  0.53030  1.0000
  I   I198      1.0  0.24330  0.33105  0.88181  1.0000
  I   I199      1.0  0.24357  0.57030  0.17784  1.0000
  I   I200      1.0  0.24330  0.54935  0.54330  1.0000
  I   I201      1.0  0.22539  0.57080  0.84119  1.0000
  I   I202      1.0  0.18045  0.84345  0.19116  1.0000
  I   I203      1.0  0.19773  0.84117  0.54335  1.0000
  I   I204      1.0  0.19328  0.83666  0.87288  1.0000
  I   I205      1.0  0.47150  0.07840  0.24488  1.0000
  I   I206      1.0  0.48448  0.09843  0.59321  1.0000
  I   I207      1.0  0.46889  0.06635  0.93362  1.0000
  I   I208      1.0  0.50472  0.30946  0.21027  1.0000
  I   I209      1.0  0.51125  0.30808  0.54913  1.0000
  I   I210      1.0  0.49723  0.30136  0.87888  1.0000
  I   I211      1.0  0.42704  0.62604  0.18125  1.0000
  I   I212      1.0  0.44218  0.60949  0.52255  1.0000
  I   I213      1.0  0.42841  0.63323  0.86617  1.0000
  I   I214      1.0  0.49318  0.80503  0.14809  1.0000
  I   I215      1.0  0.50448  0.79893  0.48308  1.0000
  I   I216      1.0  0.50193  0.78459  0.81702  1.0000
  I   I217      1.0  0.75192  0.05401  0.25838  1.0000
  I   I218      1.0  0.75961  0.04164  0.62854  1.0000
  I   I219      1.0  0.75313  0.03952  0.94271  1.0000
  I   I220      1.0  0.67443  0.35668  0.16552  1.0000
  I   I221      1.0  0.66070  0.37482  0.54651  1.0000
  I   I222      1.0  0.66929  0.36062  0.84981  1.0000
  I   I223      1.0  0.74504  0.54505  0.16689  1.0000
  I   I224      1.0  0.73620  0.54184  0.49379  1.0000
  I   I225      1.0  0.74820  0.54486  0.83692  1.0000
  I   I226      1.0  0.71659  0.83053  0.21931  1.0000
  I   I227      1.0  0.72231  0.85503  0.55166  1.0000
  I   I228      1.0  0.72170  0.83675  0.87068  1.0000
  I   I229      1.0  0.91497  0.12063  0.20481  1.0000
  I   I230      1.0  0.92317  0.15141  0.53221  1.0000
  I   I231      1.0  0.93011  0.14369  0.89785  1.0000
  I   I232      1.0  0.99240  0.31697  0.15657  1.0000
  I   I233      1.0  0.97817  0.33294  0.46584  1.0000
  I   I234      1.0  0.97960  0.33169  0.80042  1.0000
  I   I235      1.0  0.97813  0.55395  0.17907  1.0000
  I   I236      1.0  0.99308  0.54598  0.53546  1.0000
  I   I237      1.0  0.98067  0.54927  0.86832  1.0000
  I   I238      1.0  0.98851  0.79451  0.24377  1.0000
  I   I239      1.0  0.98586  0.77157  0.56666  1.0000
  I   I240      1.0  0.98497  0.77067  0.90243  1.0000
  I   I241      1.0  0.19900  0.02246  0.26973  1.0000
  I   I242      1.0  0.17446  0.01496  0.62800  1.0000
  I   I243      1.0  0.19025  0.02537  0.96095  1.0000
  I   I244      1.0  0.19698  0.27519  0.34426  1.0000
  I   I245      1.0  0.19655  0.29149  0.62403  1.0000
  I   I246      1.0  0.19436  0.27186  0.96874  1.0000
  I   I247      1.0  0.21691  0.49317  0.26533  1.0000
  I   I248      1.0  0.18249  0.50444  0.63491  1.0000
  I   I249      1.0  0.20037  0.51040  0.96059  1.0000
  I   I250      1.0  0.13480  0.78665  0.29650  1.0000
  I   I251      1.0  0.13537  0.80015  0.62747  1.0000
  I   I252      1.0  0.13552  0.79627  0.97749  1.0000
  I   I253      1.0  0.44284  0.00588  0.32304  1.0000
  I   I254      1.0  0.45829  0.01871  0.67044  1.0000
  I   I255      1.0  0.40550  0.02102  0.00344  1.0000
  I   I256      1.0  0.44738  0.26800  0.32217  1.0000
  I   I257      1.0  0.46069  0.24950  0.63036  1.0000
  I   I258      1.0  0.44337  0.25983  0.97436  1.0000
  I   I259      1.0  0.38689  0.55190  0.24684  1.0000
  I   I260      1.0  0.40397  0.54771  0.60867  1.0000
  I   I261      1.0  0.40118  0.55785  0.93186  1.0000
  I   I262      1.0  0.44730  0.74949  0.23103  1.0000
  I   I263      1.0  0.45203  0.74570  0.56496  1.0000
  I   I264      1.0  0.45020  0.73681  0.92563  1.0000
  I   I265      1.0  0.70381  0.99245  0.35358  1.0000
  I   I266      1.0  0.69916  0.00464  0.72289  1.0000
  I   I267      1.0  0.69038  0.99926  0.02658  1.0000
  I   I268      1.0  0.62067  0.30371  0.27449  1.0000
  I   I269      1.0  0.60461  0.31401  0.63983  1.0000
  I   I270      1.0  0.62221  0.31528  0.94898  1.0000
  I   I271      1.0  0.70323  0.48598  0.24132  1.0000
  I   I272      1.0  0.69070  0.48698  0.60779  1.0000
  I   I273      1.0  0.70403  0.50152  0.93485  1.0000
  I   I274      1.0  0.66382  0.77701  0.32626  1.0000
  I   I275      1.0  0.68913  0.79274  0.66597  1.0000
  I   I276      1.0  0.67632  0.77431  0.95709  1.0000
  I   I277      1.0  0.87811  0.06853  0.31856  1.0000
  I   I278      1.0  0.88977  0.09008  0.65510  1.0000
  I   I279      1.0  0.87725  0.08611  0.96706  1.0000
  I   I280      1.0  0.94252  0.26459  0.22759  1.0000
  I   I281      1.0  0.92965  0.27287  0.56786  1.0000
  I   I282      1.0  0.93739  0.26826  0.88618  1.0000
  I   I283      1.0  0.93615  0.49898  0.29685  1.0000
  I   I284      1.0  0.92516  0.50538  0.62382  1.0000
  I   I285      1.0  0.94336  0.48614  0.93734  1.0000
  I   I286      1.0  0.92676  0.75344  0.32154  1.0000
  I   I287      1.0  0.91483  0.75502  0.67925  1.0000
  I   I288      1.0  0.91826  0.74823  0.00557  1.0000
  I   I289      1.0  0.04705  0.19038  0.10195  1.0000
  I   I290      1.0  0.04578  0.18714  0.44833  1.0000
  I   I291      1.0  0.05529  0.17415  0.78145  1.0000
  I   I292      1.0  0.04744  0.43413  0.13157  1.0000
  I   I293      1.0  0.02270  0.43277  0.47252  1.0000
  I   I294      1.0  0.02834  0.41296  0.79624  1.0000
  I   I295      1.0  0.03864  0.64211  0.10890  1.0000
  I   I296      1.0  0.04412  0.65038  0.45428  1.0000
  I   I297      1.0  0.02534  0.66107  0.77858  1.0000
  I   I298      1.0  0.98797  0.96131  0.13862  1.0000
  I   I299      1.0  0.99283  0.96273  0.47481  1.0000
  I   I300      1.0  0.99627  0.97486  0.80734  1.0000
  I   I301      1.0  0.26484  0.17122  0.18657  1.0000
  I   I302      1.0  0.27102  0.17743  0.51032  1.0000
  I   I303      1.0  0.27361  0.19246  0.83846  1.0000
  I   I304      1.0  0.30090  0.39782  0.13970  1.0000
  I   I305      1.0  0.30770  0.40158  0.48015  1.0000
  I   I306      1.0  0.29537  0.41850  0.79564  1.0000
  I   I307      1.0  0.22597  0.69622  0.11967  1.0000
  I   I308      1.0  0.23904  0.67319  0.45071  1.0000
  I   I309      1.0  0.22876  0.69255  0.76138  1.0000
  I   I310      1.0  0.29670  0.89920  0.06188  1.0000
  I   I311      1.0  0.29915  0.88704  0.40080  1.0000
  I   I312      1.0  0.31371  0.90411  0.73901  1.0000
  I   I313      1.0  0.55385  0.17672  0.20661  1.0000
  I   I314      1.0  0.56193  0.13734  0.54109  1.0000
  I   I315      1.0  0.54583  0.17662  0.87034  1.0000
  I   I316      1.0  0.46665  0.45408  0.11429  1.0000
  I   I317      1.0  0.46891  0.45817  0.44861  1.0000
  I   I318      1.0  0.46735  0.48840  0.79630  1.0000
  I   I319      1.0  0.54165  0.66656  0.10321  1.0000
  I   I320      1.0  0.53676  0.63982  0.42704  1.0000
  I   I321      1.0  0.53638  0.64865  0.75947  1.0000
  I   I322      1.0  0.52262  0.94430  0.13525  1.0000
  I   I323      1.0  0.52815  0.95505  0.47331  1.0000
  I   I324      1.0  0.53154  0.94060  0.83072  1.0000
  I   I325      1.0  0.71660  0.23015  0.15267  1.0000
  I   I326      1.0  0.72578  0.23773  0.49689  1.0000
  I   I327      1.0  0.72472  0.23628  0.80704  1.0000
  I   I328      1.0  0.78993  0.40325  0.07087  1.0000
  I   I329      1.0  0.77947  0.42149  0.40087  1.0000
  I   I330      1.0  0.78624  0.39863  0.74922  1.0000
  I   I331      1.0  0.76393  0.64661  0.13010  1.0000
  I   I332      1.0  0.79015  0.67093  0.46819  1.0000
  I   I333      1.0  0.77385  0.64585  0.77064  1.0000
  I   I334      1.0  0.79116  0.93055  0.16075  1.0000
  I   I335      1.0  0.79181  0.93763  0.49637  1.0000
  I   I336      1.0  0.79323  0.93206  0.82815  1.0000
  I   I337      1.0  0.10976  0.23498  0.02848  1.0000
  I   I338      1.0  0.11261  0.22471  0.36700  1.0000
  I   I339      1.0  0.11762  0.22740  0.69575  1.0000
  I   I340      1.0  0.09820  0.48530  0.02094  1.0000
  I   I341      1.0  0.06994  0.48951  0.37045  1.0000
  I   I342      1.0  0.06960  0.48491  0.74912  1.0000
  I   I343      1.0  0.08674  0.71213  0.02786  1.0000
  I   I344      1.0  0.10088  0.69194  0.35495  1.0000
  I   I345      1.0  0.07485  0.72190  0.69667  1.0000
  I   I346      1.0  0.04513  0.00461  0.03595  1.0000
  I   I347      1.0  0.04962  0.99545  0.36198  1.0000
  I   I348      1.0  0.06400  0.00117  0.70512  1.0000
  I   I349      1.0  0.31625  0.22127  0.09539  1.0000
  I   I350      1.0  0.33501  0.21046  0.40710  1.0000
  I   I351      1.0  0.34173  0.23648  0.77109  1.0000
  I   I352      1.0  0.35118  0.46004  0.06314  1.0000
  I   I353      1.0  0.34996  0.46244  0.39489  1.0000
  I   I354      1.0  0.37475  0.45225  0.71682  1.0000
  I   I355      1.0  0.25644  0.75720  0.01686  1.0000
  I   I356      1.0  0.25852  0.74860  0.36486  1.0000
  I   I357      1.0  0.27978  0.73804  0.66990  1.0000
  I   I358      1.0  0.34629  0.94154  0.93800  1.0000
  I   I359      1.0  0.33617  0.95634  0.32190  1.0000
  I   I360      1.0  0.37911  0.93706  0.64728  1.0000
  I   I361      1.0  0.61322  0.20515  0.08951  1.0000
  I   I362      1.0  0.60157  0.18993  0.43097  1.0000
  I   I363      1.0  0.61711  0.19948  0.76325  1.0000
  I   I364      1.0  0.52262  0.51413  0.04000  1.0000
  I   I365      1.0  0.52679  0.51412  0.36795  1.0000
  I   I366      1.0  0.53169  0.52323  0.70070  1.0000
  I   I367      1.0  0.60073  0.71198  0.02306  1.0000
  I   I368      1.0  0.58026  0.69519  0.34070  1.0000
  I   I369      1.0  0.59050  0.70349  0.67616  1.0000
  I   I370      1.0  0.58657  0.97626  0.04899  1.0000
  I   I371      1.0  0.60170  0.98076  0.37962  1.0000
  I   I372      1.0  0.58687  0.98546  0.72084  1.0000
  I   I373      1.0  0.76666  0.27852  0.06784  1.0000
  I   I374      1.0  0.77581  0.27572  0.36349  1.0000
  I   I375      1.0  0.76009  0.29816  0.70671  1.0000
  I   I376      1.0  0.83621  0.47105  0.98591  1.0000
  I   I377      1.0  0.82394  0.46619  0.29002  1.0000
  I   I378      1.0  0.82203  0.46917  0.65163  1.0000
  I   I379      1.0  0.81010  0.69394  0.01756  1.0000
  I   I380      1.0  0.84631  0.71115  0.35961  1.0000
  I   I381      1.0  0.82042  0.70720  0.69465  1.0000
  I   I382      1.0  0.85774  0.95610  0.06142  1.0000
  I   I383      1.0  0.86218  0.96346  0.41433  1.0000
  I   I384      1.0  0.86400  0.95066  0.71628  1.0000
