data_image0
_chemical_formula_structural       Ti96I384
_chemical_formula_sum              "Ti96 I384"
_cell_length_a       63.8061
_cell_length_b       63.4599
_cell_length_c       31.0546
_cell_angle_alpha    88.7757
_cell_angle_beta     88.7757
_cell_angle_gamma    62.1586

_space_group_name_H-M_alt    "P 1"
_space_group_IT_number       1

loop_
  _space_group_symop_operation_xyz
  'x, y, z'

loop_
  _atom_site_type_symbol
  _atom_site_label
  _atom_site_symmetry_multiplicity
  _atom_site_fract_x
  _atom_site_fract_y
  _atom_site_fract_z
  _atom_site_occupancy
  Ti  Ti1       1.0  0.46465  0.96418  0.57091  1.0000
  Ti  Ti2       1.0  0.48148  0.16805  0.51023  1.0000
  Ti  Ti3       1.0  0.87389  0.68835  0.04198  1.0000
  Ti  Ti4       1.0  0.83909  0.23234  0.08564  1.0000
  Ti  Ti5       1.0  0.29383  0.77902  0.89527  1.0000
  Ti  Ti6       1.0  0.27214  0.20640  0.38764  1.0000
  Ti  Ti7       1.0  0.97840  0.92715  0.98798  1.0000
  Ti  Ti8       1.0  0.45537  0.49258  0.87869  1.0000
  Ti  Ti9       1.0  0.35485  0.88124  0.90140  1.0000
  Ti  Ti10      1.0  0.81387  0.72871  0.45248  1.0000
  Ti  Ti11      1.0  0.45360  0.26967  0.59945  1.0000
  Ti  Ti12      1.0  0.15500  0.62180  0.43510  1.0000
  Ti  Ti13      1.0  0.25167  0.44502  0.33714  1.0000
  Ti  Ti14      1.0  0.08268  0.96552  0.68633  1.0000
  Ti  Ti15      1.0  0.48314  0.98983  0.22271  1.0000
  Ti  Ti16      1.0  0.63610  0.86156  0.57226  1.0000
  Ti  Ti17      1.0  0.30130  0.23681  0.03474  1.0000
  Ti  Ti18      1.0  0.98358  0.69258  0.81178  1.0000
  Ti  Ti19      1.0  0.90902  0.81015  0.48718  1.0000
  Ti  Ti20      1.0  0.26022  0.04592  0.01650  1.0000
  Ti  Ti21      1.0  0.93465  0.14683  0.29343  1.0000
  Ti  Ti22      1.0  0.59128  0.47703  0.87307  1.0000
  Ti  Ti23      1.0  0.75574  0.88820  0.90409  1.0000
  Ti  Ti24      1.0  0.09437  0.69481  0.85891  1.0000
  Ti  Ti25      1.0  0.01436  0.45691  0.54459  1.0000
  Ti  Ti26      1.0  0.05725  0.12469  0.18327  1.0000
  Ti  Ti27      1.0  0.14819  0.57752  0.15435  1.0000
  Ti  Ti28      1.0  0.55392  0.45812  0.23163  1.0000
  Ti  Ti29      1.0  0.08025  0.89809  0.30350  1.0000
  Ti  Ti30      1.0  0.85757  0.36734  0.19381  1.0000
  Ti  Ti31      1.0  0.84380  0.35711  0.55051  1.0000
  Ti  Ti32      1.0  0.66489  0.12843  0.25162  1.0000
  Ti  Ti33      1.0  0.37563  0.92277  0.34923  1.0000
  Ti  Ti34      1.0  0.55428  0.69867  0.82059  1.0000
  Ti  Ti35      1.0  0.82535  0.51854  0.73944  1.0000
  Ti  Ti36      1.0  0.98450  0.51228  0.24820  1.0000
  Ti  Ti37      1.0  0.08907  0.19860  0.39111  1.0000
  Ti  Ti38      1.0  0.39179  0.42652  0.27345  1.0000
  Ti  Ti39      1.0  0.63282  0.27486  0.28247  1.0000
  Ti  Ti40      1.0  0.62459  0.78283  0.25792  1.0000
  Ti  Ti41      1.0  0.51986  0.74983  0.51969  1.0000
  Ti  Ti42      1.0  0.59095  0.20670  0.70236  1.0000
  Ti  Ti43      1.0  0.52547  0.07845  0.92378  1.0000
  Ti  Ti44      1.0  0.71376  0.62323  0.07438  1.0000
  Ti  Ti45      1.0  0.39716  0.63419  0.03319  1.0000
  Ti  Ti46      1.0  0.15233  0.30238  0.79777  1.0000
  Ti  Ti47      1.0  0.07501  0.20366  0.95153  1.0000
  Ti  Ti48      1.0  0.43226  0.58801  0.63747  1.0000
  Ti  Ti49      1.0  0.43298  0.95614  0.64637  1.0000
  Ti  Ti50      1.0  0.33103  0.07396  0.65978  1.0000
  Ti  Ti51      1.0  0.51716  0.11105  0.46883  1.0000
  Ti  Ti52      1.0  0.78368  0.26698  0.16582  1.0000
  Ti  Ti53      1.0  0.23839  0.68944  0.28740  1.0000
  Ti  Ti54      1.0  0.25886  0.15442  0.44713  1.0000
  Ti  Ti55      1.0  0.00534  0.87814  0.03112  1.0000
  Ti  Ti56      1.0  0.43071  0.49803  0.02277  1.0000
  Ti  Ti57      1.0  0.33370  0.94163  0.87477  1.0000
  Ti  Ti58      1.0  0.49677  0.13064  0.88330  1.0000
  Ti  Ti59      1.0  0.82309  0.67750  0.41973  1.0000
  Ti  Ti60      1.0  0.15467  0.63249  0.56070  1.0000
  Ti  Ti61      1.0  0.51701  0.02019  0.22444  1.0000
  Ti  Ti62      1.0  0.17279  0.45337  0.34283  1.0000
  Ti  Ti63      1.0  0.13674  0.98519  0.73584  1.0000
  Ti  Ti64      1.0  0.96164  0.73923  0.73075  1.0000
  Ti  Ti65      1.0  0.13896  0.53595  0.66127  1.0000
  Ti  Ti66      1.0  0.40257  0.44778  0.52304  1.0000
  Ti  Ti67      1.0  0.85258  0.84201  0.43902  1.0000
  Ti  Ti68      1.0  0.10716  0.15408  0.65741  1.0000
  Ti  Ti69      1.0  0.92564  0.18067  0.39056  1.0000
  Ti  Ti70      1.0  0.58829  0.47906  0.98283  1.0000
  Ti  Ti71      1.0  0.78075  0.85059  0.02843  1.0000
  Ti  Ti72      1.0  0.01565  0.02002  0.11646  1.0000
  Ti  Ti73      1.0  0.20567  0.55356  0.13364  1.0000
  Ti  Ti74      1.0  0.06230  0.43767  0.59942  1.0000
  Ti  Ti75      1.0  0.11575  0.07907  0.20180  1.0000
  Ti  Ti76      1.0  0.83612  0.40473  0.11438  1.0000
  Ti  Ti77      1.0  0.58313  0.41985  0.30454  1.0000
  Ti  Ti78      1.0  0.01152  0.95428  0.25061  1.0000
  Ti  Ti79      1.0  0.17664  0.84013  0.47821  1.0000
  Ti  Ti80      1.0  0.89400  0.39007  0.53662  1.0000
  Ti  Ti81      1.0  0.63524  0.14812  0.14788  1.0000
  Ti  Ti82      1.0  0.54036  0.65641  0.83679  1.0000
  Ti  Ti83      1.0  0.85024  0.48465  0.87866  1.0000
  Ti  Ti84      1.0  0.01526  0.54261  0.18486  1.0000
  Ti  Ti85      1.0  0.03421  0.23154  0.31783  1.0000
  Ti  Ti86      1.0  0.39189  0.44386  0.39432  1.0000
  Ti  Ti87      1.0  0.67769  0.26469  0.37895  1.0000
  Ti  Ti88      1.0  0.69419  0.73573  0.26056  1.0000
  Ti  Ti89      1.0  0.60250  0.70474  0.52717  1.0000
  Ti  Ti90      1.0  0.62775  0.14941  0.70153  1.0000
  Ti  Ti91      1.0  0.43564  0.61209  0.93378  1.0000
  Ti  Ti92      1.0  0.86922  0.10625  0.56978  1.0000
  Ti  Ti93      1.0  0.78684  0.61099  0.11424  1.0000
  Ti  Ti94      1.0  0.40585  0.64943  0.63430  1.0000
  Ti  Ti95      1.0  0.16064  0.34804  0.87516  1.0000
  Ti  Ti96      1.0  0.15216  0.16640  0.97235  1.0000
  I   I1        1.0  0.13982  0.13298  0.99657  1.0000
  I   I2        1.0  0.46551  0.13598  0.49672  1.0000
  I   I3        1.0  0.46865  0.92191  0.69462  1.0000
  I   I4        1.0  0.27551  0.65903  0.24630  1.0000
  I   I5        1.0  0.23300  0.24093  0.35229  1.0000
  I   I6        1.0  0.23802  0.15722  0.37053  1.0000
  I   I7        1.0  0.44698  0.45603  0.98474  1.0000
  I   I8        1.0  0.41518  0.51820  0.93547  1.0000
  I   I9        1.0  0.32743  0.94887  0.95660  1.0000
  I   I10       1.0  0.79720  0.70009  0.48528  1.0000
  I   I11       1.0  0.44631  0.27580  0.51983  1.0000
  I   I12       1.0  0.33533  0.74158  0.90497  1.0000
  I   I13       1.0  0.21986  0.43267  0.39003  1.0000
  I   I14       1.0  0.15985  0.96778  0.80667  1.0000
  I   I15       1.0  0.46501  0.98635  0.14785  1.0000
  I   I16       1.0  0.59845  0.89053  0.53450  1.0000
  I   I17       1.0  0.44293  0.45078  0.54217  1.0000
  I   I18       1.0  0.00556  0.71998  0.71099  1.0000
  I   I19       1.0  0.30256  0.02054  0.04385  1.0000
  I   I20       1.0  0.43081  0.27430  0.67262  1.0000
  I   I21       1.0  0.89820  0.19318  0.28125  1.0000
  I   I22       1.0  0.75134  0.88557  0.81975  1.0000
  I   I23       1.0  0.77773  0.84370  0.93370  1.0000
  I   I24       1.0  0.62570  0.44910  0.92957  1.0000
  I   I25       1.0  0.10454  0.43819  0.59931  1.0000
  I   I26       1.0  0.09264  0.12239  0.23138  1.0000
  I   I27       1.0  0.10475  0.61646  0.17217  1.0000
  I   I28       1.0  0.63303  0.39814  0.29513  1.0000
  I   I29       1.0  0.99726  0.96073  0.33000  1.0000
  I   I30       1.0  0.82099  0.41245  0.03055  1.0000
  I   I31       1.0  0.86014  0.38160  0.49022  1.0000
  I   I32       1.0  0.65583  0.13936  0.06886  1.0000
  I   I33       1.0  0.21544  0.80331  0.50707  1.0000
  I   I34       1.0  0.81081  0.49352  0.69887  1.0000
  I   I35       1.0  1.00000  0.58643  0.20856  1.0000
  I   I36       1.0  0.56440  0.71916  0.75595  1.0000
  I   I37       1.0  0.11438  0.21803  0.43161  1.0000
  I   I38       1.0  0.64317  0.28604  0.20397  1.0000
  I   I39       1.0  0.06102  0.18235  0.34142  1.0000
  I   I40       1.0  0.62590  0.70257  0.45421  1.0000
  I   I41       1.0  0.65670  0.10893  0.73903  1.0000
  I   I42       1.0  0.65959  0.79512  0.26622  1.0000
  I   I43       1.0  0.52613  0.03508  0.92957  1.0000
  I   I44       1.0  0.77763  0.64194  0.17931  1.0000
  I   I45       1.0  0.47222  0.61925  0.94181  1.0000
  I   I46       1.0  0.19122  0.26770  0.76403  1.0000
  I   I47       1.0  0.10850  0.20886  0.01366  1.0000
  I   I48       1.0  0.45968  0.60236  0.59377  1.0000
  I   I49       1.0  0.41091  0.96598  0.72615  1.0000
  I   I50       1.0  0.44579  0.20639  0.49540  1.0000
  I   I51       1.0  0.47148  0.17631  0.59737  1.0000
  I   I52       1.0  0.88332  0.20031  0.08068  1.0000
  I   I53       1.0  0.20427  0.69647  0.23053  1.0000
  I   I54       1.0  0.29253  0.16883  0.44436  1.0000
  I   I55       1.0  0.02828  0.89351  0.97448  1.0000
  I   I56       1.0  0.45391  0.50211  0.08701  1.0000
  I   I57       1.0  0.36628  0.90096  0.82384  1.0000
  I   I58       1.0  0.85592  0.73290  0.44920  1.0000
  I   I59       1.0  0.80656  0.74968  0.53580  1.0000
  I   I60       1.0  0.13892  0.60438  0.50274  1.0000
  I   I61       1.0  0.14605  0.45323  0.28264  1.0000
  I   I62       1.0  0.16266  0.42244  0.39136  1.0000
  I   I63       1.0  0.05044  0.96592  0.74512  1.0000
  I   I64       1.0  0.62733  0.82619  0.58020  1.0000
  I   I65       1.0  0.13133  0.53207  0.58252  1.0000
  I   I66       1.0  0.40254  0.41304  0.56852  1.0000
  I   I67       1.0  0.84763  0.84651  0.35633  1.0000
  I   I68       1.0  0.24761  0.04516  0.94242  1.0000
  I   I69       1.0  0.91728  0.13053  0.23616  1.0000
  I   I70       1.0  0.60477  0.44447  0.04104  1.0000
  I   I71       1.0  0.70958  0.90719  0.90308  1.0000
  I   I72       1.0  0.05635  0.01584  0.15537  1.0000
  I   I73       1.0  0.18093  0.52915  0.13064  1.0000
  I   I74       1.0  0.02830  0.13625  0.25409  1.0000
  I   I75       1.0  0.12347  0.04929  0.26677  1.0000
  I   I76       1.0  0.58531  0.40844  0.22175  1.0000
  I   I77       1.0  0.57578  0.38762  0.33270  1.0000
  I   I78       1.0  0.05795  0.90102  0.37501  1.0000
  I   I79       1.0  0.34008  0.94938  0.30195  1.0000
  I   I80       1.0  0.86140  0.43536  0.56113  1.0000
  I   I81       1.0  0.69886  0.13302  0.27959  1.0000
  I   I82       1.0  0.54368  0.73382  0.87435  1.0000
  I   I83       1.0  0.85243  0.44420  0.87569  1.0000
  I   I84       1.0  0.03693  0.51531  0.25522  1.0000
  I   I85       1.0  0.12412  0.17045  0.33812  1.0000
  I   I86       1.0  0.38835  0.40434  0.36364  1.0000
  I   I87       1.0  0.59399  0.31026  0.30153  1.0000
  I   I88       1.0  0.61383  0.74776  0.25605  1.0000
  I   I89       1.0  0.56034  0.73723  0.47032  1.0000
  I   I90       1.0  0.63720  0.16935  0.62690  1.0000
  I   I91       1.0  0.43362  0.62133  0.07857  1.0000
  I   I92       1.0  0.89357  0.08154  0.50275  1.0000
  I   I93       1.0  0.68398  0.66426  0.04224  1.0000
  I   I94       1.0  0.38569  0.62285  0.58421  1.0000
  I   I95       1.0  0.14763  0.39071  0.84879  1.0000
  I   I96       1.0  0.18561  0.14659  0.91156  1.0000
  I   I97       1.0  0.84605  0.66734  0.06796  1.0000
  I   I98       1.0  0.44577  0.99115  0.64885  1.0000
  I   I99       1.0  0.55935  0.07776  0.48059  1.0000
  I   I100      1.0  0.80265  0.26255  0.23820  1.0000
  I   I101      1.0  0.82579  0.21623  0.15296  1.0000
  I   I102      1.0  0.26992  0.79990  0.82540  1.0000
  I   I103      1.0  0.95853  0.92856  0.91469  1.0000
  I   I104      1.0  0.98502  0.85552  0.06658  1.0000
  I   I105      1.0  0.30263  0.98584  0.85979  1.0000
  I   I106      1.0  0.16960  0.66240  0.58625  1.0000
  I   I107      1.0  0.86378  0.67256  0.46397  1.0000
  I   I108      1.0  0.19658  0.62225  0.44424  1.0000
  I   I109      1.0  0.51531  0.98467  0.28996  1.0000
  I   I110      1.0  0.28211  0.40089  0.34623  1.0000
  I   I111      1.0  0.10047  0.91763  0.68361  1.0000
  I   I112      1.0  0.02688  0.66762  0.78947  1.0000
  I   I113      1.0  0.12514  0.57804  0.69248  1.0000
  I   I114      1.0  0.27851  0.26388  0.10244  1.0000
  I   I115      1.0  0.91267  0.83516  0.54982  1.0000
  I   I116      1.0  0.87304  0.87035  0.45897  1.0000
  I   I117      1.0  0.08113  0.14944  0.71616  1.0000
  I   I118      1.0  0.54941  0.49800  0.03025  1.0000
  I   I119      1.0  0.60052  0.51219  0.84201  1.0000
  I   I120      1.0  0.97377  0.02332  0.11454  1.0000
  I   I121      1.0  0.23423  0.52940  0.07422  1.0000
  I   I122      1.0  0.97637  0.49490  0.54060  1.0000
  I   I123      1.0  0.06934  0.11214  0.10408  1.0000
  I   I124      1.0  0.88430  0.38252  0.12178  1.0000
  I   I125      1.0  0.53941  0.46657  0.15223  1.0000
  I   I126      1.0  0.03796  0.90798  0.25826  1.0000
  I   I127      1.0  0.39487  0.87901  0.32090  1.0000
  I   I128      1.0  0.83300  0.34417  0.62398  1.0000
  I   I129      1.0  0.59484  0.14320  0.13125  1.0000
  I   I130      1.0  0.98682  0.54108  0.12485  1.0000
  I   I131      1.0  0.56341  0.65574  0.75993  1.0000
  I   I132      1.0  0.86012  0.50821  0.93466  1.0000
  I   I133      1.0  0.61599  0.24373  0.27292  1.0000
  I   I134      1.0  0.37926  0.45947  0.20871  1.0000
  I   I135      1.0  0.42867  0.43292  0.33483  1.0000
  I   I136      1.0  0.56194  0.22905  0.76833  1.0000
  I   I137      1.0  0.72471  0.74970  0.24062  1.0000
  I   I138      1.0  0.49645  0.74355  0.45508  1.0000
  I   I139      1.0  0.38954  0.59914  0.05966  1.0000
  I   I140      1.0  0.82552  0.13840  0.59550  1.0000
  I   I141      1.0  0.74898  0.64579  0.06560  1.0000
  I   I142      1.0  0.39185  0.61197  0.69097  1.0000
  I   I143      1.0  0.15265  0.34699  0.78651  1.0000
  I   I144      1.0  0.03891  0.24300  0.92600  1.0000
  I   I145      1.0  0.41137  0.98410  0.57093  1.0000
  I   I146      1.0  0.51505  0.18552  0.49207  1.0000
  I   I147      1.0  0.84553  0.71450  0.98110  1.0000
  I   I148      1.0  0.73897  0.27411  0.15599  1.0000
  I   I149      1.0  0.28893  0.81767  0.94124  1.0000
  I   I150      1.0  0.29274  0.11258  0.43374  1.0000
  I   I151      1.0  0.98988  0.86376  0.95594  1.0000
  I   I152      1.0  0.44144  0.52843  0.82635  1.0000
  I   I153      1.0  0.38338  0.88687  0.94923  1.0000
  I   I154      1.0  0.53022  0.13609  0.85240  1.0000
  I   I155      1.0  0.49081  0.22934  0.62183  1.0000
  I   I156      1.0  0.17236  0.60265  0.62990  1.0000
  I   I157      1.0  0.49384  0.94654  0.24106  1.0000
  I   I158      1.0  0.17008  0.98444  0.68022  1.0000
  I   I159      1.0  0.54062  0.02807  0.28390  1.0000
  I   I160      1.0  0.98451  0.73542  0.81850  1.0000
  I   I161      1.0  0.33955  0.23548  0.00016  1.0000
  I   I162      1.0  0.94458  0.78339  0.72015  1.0000
  I   I163      1.0  0.80913  0.86335  0.47134  1.0000
  I   I164      1.0  0.12365  0.17542  0.70312  1.0000
  I   I165      1.0  0.88257  0.21808  0.37984  1.0000
  I   I166      1.0  0.61768  0.44454  0.81340  1.0000
  I   I167      1.0  0.78472  0.90627  0.90527  1.0000
  I   I168      1.0  0.10576  0.64976  0.86121  1.0000
  I   I169      1.0  0.04326  0.47914  0.54354  1.0000
  I   I170      1.0  0.00675  0.43706  0.62477  1.0000
  I   I171      1.0  0.14723  0.59038  0.07694  1.0000
  I   I172      1.0  0.86769  0.39302  0.24063  1.0000
  I   I173      1.0  0.97066  0.95416  0.22279  1.0000
  I   I174      1.0  0.82782  0.34811  0.22099  1.0000
  I   I175      1.0  0.84804  0.31879  0.51033  1.0000
  I   I176      1.0  0.59856  0.19606  0.15722  1.0000
  I   I177      1.0  0.17333  0.84084  0.39128  1.0000
  I   I178      1.0  0.56096  0.61417  0.87084  1.0000
  I   I179      1.0  0.80607  0.49967  0.87864  1.0000
  I   I180      1.0  0.96795  0.55679  0.24855  1.0000
  I   I181      1.0  0.00440  0.22466  0.26147  1.0000
  I   I182      1.0  0.42288  0.41206  0.45209  1.0000
  I   I183      1.0  0.65673  0.30314  0.30298  1.0000
  I   I184      1.0  0.66142  0.74560  0.31798  1.0000
  I   I185      1.0  0.51714  0.72041  0.57657  1.0000
  I   I186      1.0  0.59287  0.16223  0.76034  1.0000
  I   I187      1.0  0.86985  0.07587  0.63151  1.0000
  I   I188      1.0  0.69356  0.59719  0.07252  1.0000
  I   I189      1.0  0.36765  0.66774  0.08363  1.0000
  I   I190      1.0  0.14831  0.27328  0.85057  1.0000
  I   I191      1.0  0.31602  0.10672  0.59824  1.0000
  I   I192      1.0  0.43348  0.64116  0.69636  1.0000
  I   I193      1.0  0.41559  0.92762  0.61157  1.0000
  I   I194      1.0  0.36593  0.07902  0.68625  1.0000
  I   I195      1.0  0.87295  0.71949  0.09759  1.0000
  I   I196      1.0  0.83449  0.25255  0.01113  1.0000
  I   I197      1.0  0.54813  0.08188  0.99526  1.0000
  I   I198      1.0  0.23674  0.20584  0.43147  1.0000
  I   I199      1.0  0.04548  0.84332  0.06003  1.0000
  I   I200      1.0  0.39636  0.49169  0.04821  1.0000
  I   I201      1.0  0.32705  0.87581  0.96693  1.0000
  I   I202      1.0  0.83317  0.71156  0.36443  1.0000
  I   I203      1.0  0.97223  0.14449  0.33246  1.0000
  I   I204      1.0  0.11456  0.65195  0.40559  1.0000
  I   I205      1.0  0.15086  0.49324  0.39093  1.0000
  I   I206      1.0  0.11181  0.98172  0.66628  1.0000
  I   I207      1.0  0.52393  0.98525  0.16433  1.0000
  I   I208      1.0  0.67442  0.85886  0.53344  1.0000
  I   I209      1.0  0.27725  0.22682  0.97844  1.0000
  I   I210      1.0  0.93429  0.72832  0.67946  1.0000
  I   I211      1.0  0.88886  0.79699  0.41481  1.0000
  I   I212      1.0  0.23674  0.09270  0.01149  1.0000
  I   I213      1.0  0.91805  0.18357  0.47413  1.0000
  I   I214      1.0  0.61693  0.49632  0.99873  1.0000
  I   I215      1.0  0.74643  0.90035  0.00586  1.0000
  I   I216      1.0  0.07373  0.71541  0.78912  1.0000
  I   I217      1.0  0.00358  0.43012  0.49828  1.0000
  I   I218      1.0  0.12495  0.05748  0.13349  1.0000
  I   I219      1.0  0.20163  0.59972  0.10415  1.0000
  I   I220      1.0  0.59089  0.46690  0.21636  1.0000
  I   I221      1.0  0.09808  0.85088  0.29664  1.0000
  I   I222      1.0  0.89693  0.32344  0.20467  1.0000
  I   I223      1.0  0.93394  0.35862  0.56057  1.0000
  I   I224      1.0  0.65669  0.10350  0.18274  1.0000
  I   I225      1.0  0.39985  0.94756  0.35335  1.0000
  I   I226      1.0  0.50056  0.65343  0.80978  1.0000
  I   I227      1.0  0.86024  0.52037  0.69584  1.0000
  I   I228      1.0  0.98824  0.48807  0.31872  1.0000
  I   I229      1.0  0.07076  0.21061  0.25596  1.0000
  I   I230      1.0  0.43429  0.39519  0.25380  1.0000
  I   I231      1.0  0.67205  0.30338  0.41830  1.0000
  I   I232      1.0  0.59217  0.80778  0.31526  1.0000
  I   I233      1.0  0.56479  0.74217  0.57413  1.0000
  I   I234      1.0  0.59719  0.24329  0.68175  1.0000
  I   I235      1.0  0.49749  0.16442  0.93021  1.0000
  I   I236      1.0  0.83160  0.59955  0.09553  1.0000
  I   I237      1.0  0.38485  0.62361  0.94500  1.0000
  I   I238      1.0  0.12722  0.30222  0.73044  1.0000
  I   I239      1.0  0.18443  0.16303  0.01938  1.0000
  I   I240      1.0  0.37524  0.68908  0.66930  1.0000
  I   I241      1.0  0.47501  0.93239  0.51402  1.0000
  I   I242      1.0  0.50141  0.15613  0.42738  1.0000
  I   I243      1.0  0.91549  0.65654  0.01116  1.0000
  I   I244      1.0  0.76947  0.31081  0.16997  1.0000
  I   I245      1.0  0.24322  0.67805  0.37193  1.0000
  I   I246      1.0  0.27361  0.24226  0.42150  1.0000
  I   I247      1.0  0.94297  0.93775  0.04173  1.0000
  I   I248      1.0  0.49248  0.47826  0.83495  1.0000
  I   I249      1.0  0.37073  0.94961  0.86173  1.0000
  I   I250      1.0  0.83308  0.63450  0.42082  1.0000
  I   I251      1.0  0.48609  0.28418  0.61438  1.0000
  I   I252      1.0  0.14783  0.66331  0.47855  1.0000
  I   I253      1.0  0.26057  0.46054  0.26810  1.0000
  I   I254      1.0  0.11050  0.03039  0.74725  1.0000
  I   I255      1.0  0.47158  0.05156  0.23810  1.0000
  I   I256      1.0  0.18639  0.51065  0.66267  1.0000
  I   I257      1.0  0.33376  0.19995  0.08305  1.0000
  I   I258      1.0  0.93519  0.72947  0.79637  1.0000
  I   I259      1.0  0.86409  0.81757  0.53381  1.0000
  I   I260      1.0  0.07674  0.18188  0.60043  1.0000
  I   I261      1.0  0.96462  0.13563  0.22313  1.0000
  I   I262      1.0  0.55216  0.47642  0.85338  1.0000
  I   I263      1.0  0.75060  0.83762  0.03335  1.0000
  I   I264      1.0  0.13557  0.69124  0.85014  1.0000
  I   I265      1.0  0.06187  0.42030  0.51541  1.0000
  I   I266      1.0  0.06647  0.07747  0.19465  1.0000
  I   I267      1.0  0.23610  0.53812  0.19456  1.0000
  I   I268      1.0  0.52639  0.50187  0.25546  1.0000
  I   I269      1.0  0.06163  0.94628  0.27992  1.0000
  I   I270      1.0  0.80235  0.41821  0.17323  1.0000
  I   I271      1.0  0.80650  0.40075  0.57356  1.0000
  I   I272      1.0  0.66999  0.15689  0.18796  1.0000
  I   I273      1.0  0.36297  0.92812  0.42927  1.0000
  I   I274      1.0  0.58321  0.66151  0.87312  1.0000
  I   I275      1.0  0.79684  0.56045  0.70778  1.0000
  I   I276      1.0  0.94922  0.51012  0.20741  1.0000
  I   I277      1.0  0.05688  0.24628  0.37846  1.0000
  I   I278      1.0  0.35774  0.46435  0.32961  1.0000
  I   I279      1.0  0.67581  0.23815  0.30972  1.0000
  I   I280      1.0  0.67794  0.72717  0.19061  1.0000
  I   I281      1.0  0.63520  0.70538  0.56708  1.0000
  I   I282      1.0  0.63377  0.18209  0.74956  1.0000
  I   I283      1.0  0.46347  0.15284  0.82763  1.0000
  I   I284      1.0  0.76177  0.58795  0.07643  1.0000
  I   I285      1.0  0.40175  0.66404  0.96784  1.0000
  I   I286      1.0  0.12101  0.35068  0.89915  1.0000
  I   I287      1.0  0.11547  0.19126  0.89639  1.0000
  I   I288      1.0  0.43545  0.55853  0.58148  1.0000
  I   I289      1.0  0.46765  0.99543  0.52094  1.0000
  I   I290      1.0  0.29499  0.09465  0.70863  1.0000
  I   I291      1.0  0.53141  0.13235  0.54043  1.0000
  I   I292      1.0  0.85680  0.25460  0.13192  1.0000
  I   I293      1.0  0.25045  0.72373  0.28101  1.0000
  I   I294      1.0  0.29723  0.18344  0.31812  1.0000
  I   I295      1.0  0.97641  0.96794  0.99026  1.0000
  I   I296      1.0  0.46955  0.49658  0.96873  1.0000
  I   I297      1.0  0.38559  0.84270  0.86340  1.0000
  I   I298      1.0  0.47467  0.11060  0.94167  1.0000
  I   I299      1.0  0.78936  0.77414  0.42658  1.0000
  I   I300      1.0  0.11403  0.64264  0.59306  1.0000
  I   I301      1.0  0.44330  0.01167  0.26711  1.0000
  I   I302      1.0  0.20689  0.45709  0.29240  1.0000
  I   I303      1.0  0.04935  0.97845  0.63159  1.0000
  I   I304      1.0  0.97769  0.65511  0.80090  1.0000
  I   I305      1.0  0.64885  0.87584  0.64890  1.0000
  I   I306      1.0  0.36058  0.45098  0.46120  1.0000
  I   I307      1.0  0.94175  0.76955  0.51302  1.0000
  I   I308      1.0  0.22998  0.03941  0.07424  1.0000
  I   I309      1.0  0.91301  0.14394  0.37024  1.0000
  I   I310      1.0  0.56365  0.51925  0.91623  1.0000
  I   I311      1.0  0.78524  0.86718  0.10575  1.0000
  I   I312      1.0  0.00517  0.06562  0.09783  1.0000
  I   I313      1.0  0.13468  0.55014  0.20532  1.0000
  I   I314      1.0  0.06055  0.45854  0.67304  1.0000
  I   I315      1.0  0.03680  0.17119  0.17331  1.0000
  I   I316      1.0  0.84573  0.35470  0.12039  1.0000
  I   I317      1.0  0.53180  0.44352  0.29326  1.0000
  I   I318      1.0  0.01813  0.98174  0.18004  1.0000
  I   I319      1.0  0.14306  0.83353  0.50958  1.0000
  I   I320      1.0  0.91157  0.39727  0.46491  1.0000
  I   I321      1.0  0.65855  0.09976  0.31182  1.0000
  I   I322      1.0  0.51343  0.72432  0.78404  1.0000
  I   I323      1.0  0.83336  0.53709  0.82085  1.0000
  I   I324      1.0  0.01207  0.47557  0.20071  1.0000
  I   I325      1.0  0.02803  0.27358  0.29507  1.0000
  I   I326      1.0  0.39713  0.47560  0.44265  1.0000
  I   I327      1.0  0.71514  0.22711  0.40237  1.0000
  I   I328      1.0  0.61682  0.80005  0.17407  1.0000
  I   I329      1.0  0.61133  0.66336  0.56214  1.0000
  I   I330      1.0  0.55890  0.20728  0.64985  1.0000
  I   I331      1.0  0.44282  0.57393  0.98770  1.0000
  I   I332      1.0  0.56426  0.06629  0.88361  1.0000
  I   I333      1.0  0.79804  0.58232  0.18755  1.0000
  I   I334      1.0  0.41120  0.67102  0.56459  1.0000
  I   I335      1.0  0.18980  0.29873  0.86246  1.0000
  I   I336      1.0  0.07429  0.16546  0.91959  1.0000
  I   I337      1.0  0.50738  0.94314  0.60280  1.0000
  I   I338      1.0  0.33902  0.03269  0.63608  1.0000
  I   I339      1.0  0.50436  0.10159  0.39752  1.0000
  I   I340      1.0  0.79059  0.27042  0.07390  1.0000
  I   I341      1.0  0.26915  0.76095  0.91978  1.0000
  I   I342      1.0  0.23098  0.16375  0.51357  1.0000
  I   I343      1.0  0.99531  0.91537  0.07968  1.0000
  I   I344      1.0  0.44154  0.46503  0.85258  1.0000
  I   I345      1.0  0.30929  0.91678  0.86561  1.0000
  I   I346      1.0  0.50996  0.08519  0.83287  1.0000
  I   I347      1.0  0.78151  0.69398  0.37511  1.0000
  I   I348      1.0  0.16162  0.58354  0.39184  1.0000
  I   I349      1.0  0.52469  0.04578  0.16723  1.0000
  I   I350      1.0  0.26305  0.46754  0.39465  1.0000
  I   I351      1.0  0.09687  0.98087  0.76730  1.0000
  I   I352      1.0  0.99786  0.67375  0.88742  1.0000
  I   I353      1.0  0.12242  0.51671  0.72012  1.0000
  I   I354      1.0  0.36955  0.48800  0.55394  1.0000
  I   I355      1.0  0.93518  0.81908  0.43042  1.0000
  I   I356      1.0  0.14059  0.11703  0.62480  1.0000
  I   I357      1.0  0.95674  0.19527  0.40190  1.0000
  I   I358      1.0  0.07390  0.71388  0.92820  1.0000
  I   I359      1.0  0.82356  0.81577  0.04566  1.0000
  I   I360      1.0  0.03249  0.00749  0.03873  1.0000
  I   I361      1.0  0.17914  0.59192  0.19507  1.0000
  I   I362      1.0  0.07635  0.39627  0.64119  1.0000
  I   I363      1.0  0.15810  0.07593  0.22298  1.0000
  I   I364      1.0  0.83850  0.44337  0.13105  1.0000
  I   I365      1.0  0.58680  0.44463  0.36723  1.0000
  I   I366      1.0  0.12539  0.88584  0.30068  1.0000
  I   I367      1.0  0.16580  0.88045  0.51910  1.0000
  I   I368      1.0  0.87339  0.36969  0.59948  1.0000
  I   I369      1.0  0.62455  0.16491  0.27343  1.0000
  I   I370      1.0  0.51840  0.69050  0.89417  1.0000
  I   I371      1.0  0.86421  0.47506  0.78842  1.0000
  I   I372      1.0  0.05807  0.53752  0.15253  1.0000
  I   I373      1.0  0.06826  0.19322  0.46228  1.0000
  I   I374      1.0  0.36442  0.41080  0.24100  1.0000
  I   I375      1.0  0.64791  0.25830  0.43119  1.0000
  I   I376      1.0  0.72957  0.69257  0.29239  1.0000
  I   I377      1.0  0.50014  0.79583  0.53176  1.0000
  I   I378      1.0  0.61175  0.12361  0.64724  1.0000
  I   I379      1.0  0.45046  0.58493  0.86743  1.0000
  I   I380      1.0  0.89171  0.12337  0.61062  1.0000
  I   I381      1.0  0.71303  0.63560  0.15211  1.0000
  I   I382      1.0  0.45938  0.56190  0.69603  1.0000
  I   I383      1.0  0.17433  0.34726  0.96201  1.0000
  I   I384      1.0  0.05511  0.20010  0.02852  1.0000
