data_image0
_chemical_formula_structural       Ti96I384
_chemical_formula_sum              "Ti96 I384"
_cell_length_a       66.2353
_cell_length_b       66.109
_cell_length_c       32.3363
_cell_angle_alpha    88.7757
_cell_angle_beta     88.7757
_cell_angle_gamma    62.1586

_space_group_name_H-M_alt    "P 1"
_space_group_IT_number       1

loop_
  _space_group_symop_operation_xyz
  'x, y, z'

loop_
  _atom_site_type_symbol
  _atom_site_label
  _atom_site_symmetry_multiplicity
  _atom_site_fract_x
  _atom_site_fract_y
  _atom_site_fract_z
  _atom_site_occupancy
  Ti  Ti1       1.0  0.49474  0.76699  0.48770  1.0000
  Ti  Ti2       1.0  0.52029  0.99892  0.06266  1.0000
  Ti  Ti3       1.0  0.71643  0.87649  0.36649  1.0000
  Ti  Ti4       1.0  0.05384  0.98457  0.80122  1.0000
  Ti  Ti5       1.0  0.76667  0.76103  0.65273  1.0000
  Ti  Ti6       1.0  0.32428  0.41049  0.54961  1.0000
  Ti  Ti7       1.0  0.83136  0.20973  0.31822  1.0000
  Ti  Ti8       1.0  0.43716  0.13737  0.89935  1.0000
  Ti  Ti9       1.0  0.26314  0.90792  0.79478  1.0000
  Ti  Ti10      1.0  0.69266  0.98121  0.03628  1.0000
  Ti  Ti11      1.0  0.98675  0.33356  0.36319  1.0000
  Ti  Ti12      1.0  0.13669  0.59573  0.44039  1.0000
  Ti  Ti13      1.0  0.12983  0.09139  0.69266  1.0000
  Ti  Ti14      1.0  0.09161  0.01158  0.56625  1.0000
  Ti  Ti15      1.0  0.59658  0.14861  0.74466  1.0000
  Ti  Ti16      1.0  0.72909  0.98907  0.95416  1.0000
  Ti  Ti17      1.0  0.31283  0.09448  0.50189  1.0000
  Ti  Ti18      1.0  0.11962  0.71828  0.27327  1.0000
  Ti  Ti19      1.0  0.52330  0.62360  0.24466  1.0000
  Ti  Ti20      1.0  0.35981  0.87664  0.61217  1.0000
  Ti  Ti21      1.0  0.30177  0.03632  0.90570  1.0000
  Ti  Ti22      1.0  0.66858  0.52988  0.10753  1.0000
  Ti  Ti23      1.0  0.53337  0.05917  0.63174  1.0000
  Ti  Ti24      1.0  0.14437  0.81579  0.45328  1.0000
  Ti  Ti25      1.0  0.65970  0.75083  0.86387  1.0000
  Ti  Ti26      1.0  0.40134  0.92179  0.15271  1.0000
  Ti  Ti27      1.0  0.84699  0.92247  0.41328  1.0000
  Ti  Ti28      1.0  0.68193  0.47931  0.77292  1.0000
  Ti  Ti29      1.0  0.89736  0.93483  0.74195  1.0000
  Ti  Ti30      1.0  0.03345  0.20992  0.58787  1.0000
  Ti  Ti31      1.0  0.92486  0.11033  0.08505  1.0000
  Ti  Ti32      1.0  0.68538  0.34037  0.22278  1.0000
  Ti  Ti33      1.0  0.18876  0.85229  0.16475  1.0000
  Ti  Ti34      1.0  0.53902  0.45173  0.00752  1.0000
  Ti  Ti35      1.0  0.67563  0.55328  0.42908  1.0000
  Ti  Ti36      1.0  0.76905  0.78948  0.05217  1.0000
  Ti  Ti37      1.0  0.99147  0.51008  0.40474  1.0000
  Ti  Ti38      1.0  0.57354  0.29126  0.04833  1.0000
  Ti  Ti39      1.0  0.97407  0.73165  0.01530  1.0000
  Ti  Ti40      1.0  0.23367  0.16408  0.98888  1.0000
  Ti  Ti41      1.0  0.53031  0.69921  0.72930  1.0000
  Ti  Ti42      1.0  0.82457  0.46355  0.07237  1.0000
  Ti  Ti43      1.0  0.65291  0.19992  0.29424  1.0000
  Ti  Ti44      1.0  0.82124  0.50172  0.69225  1.0000
  Ti  Ti45      1.0  0.28752  0.63949  0.36958  1.0000
  Ti  Ti46      1.0  0.35834  0.49338  0.38849  1.0000
  Ti  Ti47      1.0  0.15198  0.49761  0.13661  1.0000
  Ti  Ti48      1.0  0.56060  0.47173  0.62722  1.0000
  Ti  Ti49      1.0  0.65940  0.69807  0.60102  1.0000
  Ti  Ti50      1.0  0.07350  0.19336  0.86209  1.0000
  Ti  Ti51      1.0  0.55510  0.01993  0.16986  1.0000
  Ti  Ti52      1.0  0.09710  0.00482  0.82584  1.0000
  Ti  Ti53      1.0  0.41406  0.61939  0.82197  1.0000
  Ti  Ti54      1.0  0.36969  0.39572  0.64561  1.0000
  Ti  Ti55      1.0  0.88322  0.14928  0.29159  1.0000
  Ti  Ti56      1.0  0.45680  0.32768  0.81761  1.0000
  Ti  Ti57      1.0  0.30102  0.86944  0.85178  1.0000
  Ti  Ti58      1.0  0.66640  0.15668  0.42347  1.0000
  Ti  Ti59      1.0  0.27374  0.19387  0.69187  1.0000
  Ti  Ti60      1.0  0.11249  0.56719  0.44823  1.0000
  Ti  Ti61      1.0  0.64313  0.12751  0.69434  1.0000
  Ti  Ti62      1.0  0.16653  0.10866  0.65801  1.0000
  Ti  Ti63      1.0  0.04454  0.02341  0.58392  1.0000
  Ti  Ti64      1.0  0.14572  0.75121  0.21292  1.0000
  Ti  Ti65      1.0  0.06095  0.30470  0.65550  1.0000
  Ti  Ti66      1.0  0.45980  0.36825  0.20136  1.0000
  Ti  Ti67      1.0  0.47791  0.60810  0.22504  1.0000
  Ti  Ti68      1.0  0.06583  0.34778  0.12202  1.0000
  Ti  Ti69      1.0  0.36559  0.98725  0.88098  1.0000
  Ti  Ti70      1.0  0.66668  0.56880  0.08541  1.0000
  Ti  Ti71      1.0  0.50872  0.03429  0.59383  1.0000
  Ti  Ti72      1.0  0.17491  0.01776  0.21834  1.0000
  Ti  Ti73      1.0  0.85979  0.97259  0.42962  1.0000
  Ti  Ti74      1.0  0.62845  0.80635  0.88318  1.0000
  Ti  Ti75      1.0  0.39017  0.88427  0.18312  1.0000
  Ti  Ti76      1.0  0.03884  0.20922  0.49844  1.0000
  Ti  Ti77      1.0  0.71787  0.45600  0.64026  1.0000
  Ti  Ti78      1.0  0.84675  0.97585  0.76879  1.0000
  Ti  Ti79      1.0  0.53061  0.43473  0.25340  1.0000
  Ti  Ti80      1.0  0.80332  0.10778  0.66015  1.0000
  Ti  Ti81      1.0  0.73242  0.31922  0.21656  1.0000
  Ti  Ti82      1.0  0.46699  0.47722  0.98222  1.0000
  Ti  Ti83      1.0  0.71026  0.50415  0.37734  1.0000
  Ti  Ti84      1.0  0.77446  0.76763  0.96881  1.0000
  Ti  Ti85      1.0  0.03804  0.46895  0.30173  1.0000
  Ti  Ti86      1.0  0.52106  0.32075  0.14672  1.0000
  Ti  Ti87      1.0  0.00866  0.67067  0.07924  1.0000
  Ti  Ti88      1.0  0.62375  0.79906  0.36332  1.0000
  Ti  Ti89      1.0  0.59194  0.66561  0.75559  1.0000
  Ti  Ti90      1.0  0.81123  0.41916  0.02682  1.0000
  Ti  Ti91      1.0  0.29881  0.60826  0.25714  1.0000
  Ti  Ti92      1.0  0.95035  0.86933  0.99139  1.0000
  Ti  Ti93      1.0  0.86464  0.47770  0.81629  1.0000
  Ti  Ti94      1.0  0.55531  0.40514  0.62919  1.0000
  Ti  Ti95      1.0  0.41084  0.47806  0.35034  1.0000
  Ti  Ti96      1.0  0.18137  0.53497  0.06976  1.0000
  I   I1        1.0  0.20667  0.52276  0.00523  1.0000
  I   I2        1.0  0.56710  0.98626  0.10287  1.0000
  I   I3        1.0  0.61846  0.73448  0.61057  1.0000
  I   I4        1.0  0.41086  0.61327  0.74672  1.0000
  I   I5        1.0  0.30153  0.40113  0.49253  1.0000
  I   I6        1.0  0.40621  0.36563  0.61327  1.0000
  I   I7        1.0  0.41583  0.18212  0.89308  1.0000
  I   I8        1.0  0.44113  0.32875  0.74383  1.0000
  I   I9        1.0  0.25353  0.88303  0.86933  1.0000
  I   I10       1.0  0.73487  0.95094  0.99334  1.0000
  I   I11       1.0  0.94708  0.36593  0.38500  1.0000
  I   I12       1.0  0.74872  0.75522  0.58568  1.0000
  I   I13       1.0  0.20128  0.07935  0.69910  1.0000
  I   I14       1.0  0.05544  0.99779  0.52112  1.0000
  I   I15       1.0  0.56685  0.18318  0.79136  1.0000
  I   I16       1.0  0.74306  0.00430  0.01147  1.0000
  I   I17       1.0  0.43255  0.41100  0.16952  1.0000
  I   I18       1.0  0.12725  0.76778  0.28175  1.0000
  I   I19       1.0  0.31867  0.90411  0.59554  1.0000
  I   I20       1.0  0.01167  0.35022  0.32704  1.0000
  I   I21       1.0  0.29571  0.00451  0.87338  1.0000
  I   I22       1.0  0.52381  0.03356  0.69651  1.0000
  I   I23       1.0  0.49906  0.05987  0.52814  1.0000
  I   I24       1.0  0.68091  0.55968  0.00595  1.0000
  I   I25       1.0  0.61870  0.81627  0.96091  1.0000
  I   I26       1.0  0.42959  0.87176  0.14328  1.0000
  I   I27       1.0  0.89384  0.92718  0.40917  1.0000
  I   I28       1.0  0.68619  0.44654  0.69643  1.0000
  I   I29       1.0  0.84525  0.01599  0.79160  1.0000
  I   I30       1.0  0.06804  0.16776  0.55254  1.0000
  I   I31       1.0  0.83662  0.11648  0.66866  1.0000
  I   I32       1.0  0.74173  0.30464  0.13419  1.0000
  I   I33       1.0  0.56115  0.40377  0.20387  1.0000
  I   I34       1.0  0.73075  0.47097  0.44118  1.0000
  I   I35       1.0  0.77950  0.82401  0.08135  1.0000
  I   I36       1.0  0.54972  0.48632  0.02712  1.0000
  I   I37       1.0  0.02182  0.45612  0.24181  1.0000
  I   I38       1.0  0.99999  0.68314  0.99536  1.0000
  I   I39       1.0  0.04581  0.49446  0.25211  1.0000
  I   I40       1.0  0.61500  0.65309  0.82448  1.0000
  I   I41       1.0  0.83003  0.39467  0.95768  1.0000
  I   I42       1.0  0.22465  0.13964  0.04592  1.0000
  I   I43       1.0  0.69773  0.15663  0.46757  1.0000
  I   I44       1.0  0.85583  0.45760  0.87271  1.0000
  I   I45       1.0  0.26185  0.65163  0.29624  1.0000
  I   I46       1.0  0.42359  0.50545  0.31146  1.0000
  I   I47       1.0  0.16600  0.49436  0.20935  1.0000
  I   I48       1.0  0.53687  0.50948  0.66829  1.0000
  I   I49       1.0  0.66434  0.68795  0.68055  1.0000
  I   I50       1.0  0.48087  0.01669  0.03377  1.0000
  I   I51       1.0  0.51290  0.01577  0.15023  1.0000
  I   I52       1.0  0.10001  0.95963  0.82691  1.0000
  I   I53       1.0  0.37301  0.63758  0.85371  1.0000
  I   I54       1.0  0.36267  0.37859  0.71178  1.0000
  I   I55       1.0  0.82638  0.24281  0.26488  1.0000
  I   I56       1.0  0.41021  0.12037  0.92675  1.0000
  I   I57       1.0  0.28615  0.86862  0.75179  1.0000
  I   I58       1.0  0.69802  0.00212  0.10605  1.0000
  I   I59       1.0  0.30023  0.15233  0.66253  1.0000
  I   I60       1.0  0.13765  0.57353  0.37879  1.0000
  I   I61       1.0  0.16407  0.14094  0.69919  1.0000
  I   I62       1.0  0.15143  0.05714  0.74747  1.0000
  I   I63       1.0  0.12037  0.97767  0.61308  1.0000
  I   I64       1.0  0.70987  0.02506  0.89681  1.0000
  I   I65       1.0  0.07606  0.28631  0.58427  1.0000
  I   I66       1.0  0.48121  0.36762  0.27218  1.0000
  I   I67       1.0  0.49890  0.62141  0.30695  1.0000
  I   I68       1.0  0.36150  0.87966  0.69190  1.0000
  I   I69       1.0  0.36331  0.99227  0.79804  1.0000
  I   I70       1.0  0.71183  0.53093  0.08447  1.0000
  I   I71       1.0  0.55344  0.02225  0.57072  1.0000
  I   I72       1.0  0.18079  0.03861  0.15552  1.0000
  I   I73       1.0  0.85054  0.96627  0.50565  1.0000
  I   I74       1.0  0.37131  0.91764  0.10078  1.0000
  I   I75       1.0  0.34322  0.91110  0.19318  1.0000
  I   I76       1.0  0.68461  0.44335  0.81976  1.0000
  I   I77       1.0  0.73911  0.47884  0.62195  1.0000
  I   I78       1.0  0.82039  0.99702  0.71011  1.0000
  I   I79       1.0  0.15136  0.88857  0.16659  1.0000
  I   I80       1.0  0.96186  0.07841  0.05188  1.0000
  I   I81       1.0  0.72105  0.28826  0.24475  1.0000
  I   I82       1.0  0.45563  0.45823  0.92586  1.0000
  I   I83       1.0  0.65558  0.53472  0.37241  1.0000
  I   I84       1.0  0.75585  0.81718  0.96770  1.0000
  I   I85       1.0  0.99779  0.46810  0.35943  1.0000
  I   I86       1.0  0.52565  0.31540  0.04677  1.0000
  I   I87       1.0  0.95173  0.76805  0.05305  1.0000
  I   I88       1.0  0.23427  0.17528  0.91107  1.0000
  I   I89       1.0  0.56987  0.64074  0.76731  1.0000
  I   I90       1.0  0.80095  0.38811  0.05533  1.0000
  I   I91       1.0  0.30129  0.63956  0.20864  1.0000
  I   I92       1.0  0.98442  0.88146  0.98557  1.0000
  I   I93       1.0  0.78758  0.54366  0.69630  1.0000
  I   I94       1.0  0.58928  0.44025  0.67187  1.0000
  I   I95       1.0  0.33798  0.53703  0.37062  1.0000
  I   I96       1.0  0.14404  0.55040  0.02182  1.0000
  I   I97       1.0  0.70616  0.85746  0.30067  1.0000
  I   I98       1.0  0.52342  0.78397  0.48414  1.0000
  I   I99       1.0  0.54549  0.96433  0.02230  1.0000
  I   I100      1.0  0.01876  0.98208  0.84120  1.0000
  I   I101      1.0  0.05346  0.01485  0.86255  1.0000
  I   I102      1.0  0.80831  0.74594  0.62580  1.0000
  I   I103      1.0  0.89043  0.11079  0.25800  1.0000
  I   I104      1.0  0.80326  0.23141  0.37835  1.0000
  I   I105      1.0  0.29777  0.87085  0.93176  1.0000
  I   I106      1.0  0.09936  0.58253  0.52715  1.0000
  I   I107      1.0  0.70450  0.94361  0.08549  1.0000
  I   I108      1.0  0.12894  0.61837  0.51007  1.0000
  I   I109      1.0  0.62032  0.17579  0.73369  1.0000
  I   I110      1.0  0.18159  0.11894  0.59419  1.0000
  I   I111      1.0  0.11948  0.98396  0.50855  1.0000
  I   I112      1.0  0.13295  0.71003  0.35233  1.0000
  I   I113      1.0  0.09522  0.30166  0.69443  1.0000
  I   I114      1.0  0.35130  0.05614  0.50412  1.0000
  I   I115      1.0  0.51038  0.62637  0.16506  1.0000
  I   I116      1.0  0.52022  0.57628  0.23754  1.0000
  I   I117      1.0  0.07111  0.36303  0.19444  1.0000
  I   I118      1.0  0.62198  0.59719  0.07820  1.0000
  I   I119      1.0  0.68188  0.59918  0.09666  1.0000
  I   I120      1.0  0.20771  0.97811  0.23555  1.0000
  I   I121      1.0  0.86314  0.91074  0.48704  1.0000
  I   I122      1.0  0.65848  0.72135  0.80870  1.0000
  I   I123      1.0  0.40696  0.91333  0.23226  1.0000
  I   I124      1.0  0.02478  0.19117  0.44171  1.0000
  I   I125      1.0  0.69036  0.50038  0.83371  1.0000
  I   I126      1.0  0.89675  0.95079  0.81426  1.0000
  I   I127      1.0  0.18570  0.83056  0.09900  1.0000
  I   I128      1.0  0.76857  0.14866  0.66614  1.0000
  I   I129      1.0  0.77681  0.31196  0.21867  1.0000
  I   I130      1.0  0.74547  0.75528  0.00888  1.0000
  I   I131      1.0  0.51333  0.43133  0.96924  1.0000
  I   I132      1.0  0.73781  0.50117  0.32164  1.0000
  I   I133      1.0  0.99043  0.74471  0.94816  1.0000
  I   I134      1.0  0.61474  0.27673  0.07211  1.0000
  I   I135      1.0  0.53009  0.27624  0.13522  1.0000
  I   I136      1.0  0.78432  0.48524  0.11645  1.0000
  I   I137      1.0  0.64339  0.77444  0.42732  1.0000
  I   I138      1.0  0.49820  0.69206  0.75774  1.0000
  I   I139      1.0  0.29974  0.63881  0.44565  1.0000
  I   I140      1.0  0.92973  0.87648  0.92139  1.0000
  I   I141      1.0  0.84392  0.51724  0.75253  1.0000
  I   I142      1.0  0.58489  0.48112  0.56306  1.0000
  I   I143      1.0  0.39455  0.50519  0.41719  1.0000
  I   I144      1.0  0.14468  0.54473  0.13942  1.0000
  I   I145      1.0  0.49911  0.74317  0.42161  1.0000
  I   I146      1.0  0.52684  0.03222  0.02253  1.0000
  I   I147      1.0  0.72227  0.90722  0.33409  1.0000
  I   I148      1.0  0.08561  0.00149  0.74722  1.0000
  I   I149      1.0  0.76282  0.73634  0.71258  1.0000
  I   I150      1.0  0.29242  0.44522  0.58686  1.0000
  I   I151      1.0  0.91854  0.13320  0.33722  1.0000
  I   I152      1.0  0.45694  0.11328  0.83275  1.0000
  I   I153      1.0  0.33926  0.87055  0.83172  1.0000
  I   I154      1.0  0.64130  0.13977  0.45896  1.0000
  I   I155      1.0  0.99257  0.31256  0.43533  1.0000
  I   I156      1.0  0.08467  0.56203  0.38854  1.0000
  I   I157      1.0  0.57236  0.12636  0.74881  1.0000
  I   I158      1.0  0.05050  0.04837  0.64089  1.0000
  I   I159      1.0  0.66479  0.11989  0.62323  1.0000
  I   I160      1.0  0.16794  0.70543  0.24547  1.0000
  I   I161      1.0  0.30274  0.12592  0.55613  1.0000
  I   I162      1.0  0.18900  0.74203  0.19286  1.0000
  I   I163      1.0  0.56256  0.59876  0.26536  1.0000
  I   I164      1.0  0.05830  0.31443  0.14085  1.0000
  I   I165      1.0  0.30618  0.04065  0.98279  1.0000
  I   I166      1.0  0.69091  0.49822  0.15733  1.0000
  I   I167      1.0  0.55556  0.05841  0.69891  1.0000
  I   I168      1.0  0.11066  0.82257  0.40856  1.0000
  I   I169      1.0  0.61011  0.77873  0.86741  1.0000
  I   I170      1.0  0.70486  0.71596  0.87273  1.0000
  I   I171      1.0  0.82602  0.96592  0.39841  1.0000
  I   I172      1.0  0.01173  0.24782  0.47419  1.0000
  I   I173      1.0  0.85376  0.93768  0.72118  1.0000
  I   I174      1.0  0.00555  0.24820  0.61163  1.0000
  I   I175      1.0  0.88905  0.10237  0.09243  1.0000
  I   I176      1.0  0.68101  0.32284  0.15116  1.0000
  I   I177      1.0  0.55421  0.44363  0.29891  1.0000
  I   I178      1.0  0.42886  0.50154  0.02210  1.0000
  I   I179      1.0  0.69773  0.47733  0.34874  1.0000
  I   I180      1.0  0.79637  0.72418  0.94526  1.0000
  I   I181      1.0  0.08432  0.44816  0.30474  1.0000
  I   I182      1.0  0.47779  0.32178  0.18439  1.0000
  I   I183      1.0  0.01735  0.66612  0.15980  1.0000
  I   I184      1.0  0.64961  0.81852  0.34171  1.0000
  I   I185      1.0  0.55306  0.70037  0.80110  1.0000
  I   I186      1.0  0.76970  0.44877  0.00616  1.0000
  I   I187      1.0  0.96216  0.83230  0.03908  1.0000
  I   I188      1.0  0.79191  0.48530  0.69020  1.0000
  I   I189      1.0  0.32314  0.62221  0.32199  1.0000
  I   I190      1.0  0.45240  0.44636  0.36858  1.0000
  I   I191      1.0  0.03496  0.19554  0.82875  1.0000
  I   I192      1.0  0.57397  0.38544  0.69530  1.0000
  I   I193      1.0  0.44998  0.79386  0.51393  1.0000
  I   I194      1.0  0.10320  0.21115  0.83347  1.0000
  I   I195      1.0  0.75518  0.85571  0.40654  1.0000
  I   I196      1.0  0.04962  0.94963  0.76825  1.0000
  I   I197      1.0  0.63525  0.19613  0.38694  1.0000
  I   I198      1.0  0.35564  0.42301  0.56666  1.0000
  I   I199      1.0  0.89817  0.16793  0.23248  1.0000
  I   I200      1.0  0.46019  0.28716  0.83986  1.0000
  I   I201      1.0  0.25934  0.94017  0.73156  1.0000
  I   I202      1.0  0.23544  0.21499  0.65551  1.0000
  I   I203      1.0  0.38730  0.93937  0.89431  1.0000
  I   I204      1.0  0.15416  0.61813  0.40251  1.0000
  I   I205      1.0  0.16211  0.06415  0.63538  1.0000
  I   I206      1.0  0.03959  0.99322  0.62501  1.0000
  I   I207      1.0  0.62881  0.09581  0.66738  1.0000
  I   I208      1.0  0.76741  0.96763  0.89612  1.0000
  I   I209      1.0  0.28744  0.07974  0.54002  1.0000
  I   I210      1.0  0.07769  0.73620  0.29023  1.0000
  I   I211      1.0  0.45637  0.65287  0.22713  1.0000
  I   I212      1.0  0.37934  0.90252  0.60237  1.0000
  I   I213      1.0  0.40259  0.99094  0.89156  1.0000
  I   I214      1.0  0.66529  0.56724  0.16660  1.0000
  I   I215      1.0  0.53181  0.09384  0.57305  1.0000
  I   I216      1.0  0.13601  0.82409  0.53404  1.0000
  I   I217      1.0  0.65421  0.77841  0.79910  1.0000
  I   I218      1.0  0.38776  0.86526  0.25456  1.0000
  I   I219      1.0  0.89586  0.97726  0.44744  1.0000
  I   I220      1.0  0.63676  0.50121  0.79156  1.0000
  I   I221      1.0  0.93503  0.91827  0.68774  1.0000
  I   I222      1.0  0.00352  0.20466  0.53975  1.0000
  I   I223      1.0  0.93063  0.13174  0.14540  1.0000
  I   I224      1.0  0.66275  0.32742  0.27507  1.0000
  I   I225      1.0  0.22739  0.85079  0.15105  1.0000
  I   I226      1.0  0.47313  0.50489  0.93171  1.0000
  I   I227      1.0  0.72184  0.53138  0.42546  1.0000
  I   I228      1.0  0.78185  0.76450  0.11650  1.0000
  I   I229      1.0  0.96423  0.53013  0.34330  1.0000
  I   I230      1.0  0.58023  0.25218  0.02238  1.0000
  I   I231      1.0  0.05222  0.63242  0.06436  1.0000
  I   I232      1.0  0.06264  0.04941  0.52613  1.0000
  I   I233      1.0  0.51295  0.74423  0.72928  1.0000
  I   I234      1.0  0.84610  0.43399  0.99961  1.0000
  I   I235      1.0  0.68065  0.19541  0.23530  1.0000
  I   I236      1.0  0.84261  0.51657  0.85840  1.0000
  I   I237      1.0  0.33697  0.57880  0.24127  1.0000
  I   I238      1.0  0.33786  0.50378  0.45533  1.0000
  I   I239      1.0  0.18381  0.57220  0.08445  1.0000
  I   I240      1.0  0.57501  0.42892  0.58389  1.0000
  I   I241      1.0  0.65215  0.66867  0.55873  1.0000
  I   I242      1.0  0.58736  0.03399  0.14360  1.0000
  I   I243      1.0  0.68402  0.89167  0.42585  1.0000
  I   I244      1.0  0.13603  0.99540  0.86556  1.0000
  I   I245      1.0  0.42839  0.58010  0.86473  1.0000
  I   I246      1.0  0.36443  0.43746  0.67804  1.0000
  I   I247      1.0  0.83738  0.17292  0.25207  1.0000
  I   I248      1.0  0.46278  0.13078  0.96638  1.0000
  I   I249      1.0  0.31901  0.82845  0.84563  1.0000
  I   I250      1.0  0.27457  0.18331  0.77049  1.0000
  I   I251      1.0  0.98059  0.31590  0.30088  1.0000
  I   I252      1.0  0.13474  0.52284  0.46161  1.0000
  I   I253      1.0  0.10128  0.12559  0.73780  1.0000
  I   I254      1.0  0.00134  0.04950  0.55931  1.0000
  I   I255      1.0  0.59015  0.16046  0.66248  1.0000
  I   I256      1.0  0.05503  0.27262  0.69508  1.0000
  I   I257      1.0  0.30537  0.11575  0.42603  1.0000
  I   I258      1.0  0.11086  0.73645  0.18721  1.0000
  I   I259      1.0  0.46661  0.60288  0.15136  1.0000
  I   I260      1.0  0.09985  0.33562  0.07213  1.0000
  I   I261      1.0  0.28389  0.07664  0.86588  1.0000
  I   I262      1.0  0.62488  0.54459  0.13304  1.0000
  I   I263      1.0  0.52486  0.99228  0.57385  1.0000
  I   I264      1.0  0.16690  0.83885  0.44038  1.0000
  I   I265      1.0  0.65621  0.73102  0.93243  1.0000
  I   I266      1.0  0.36691  0.96494  0.17428  1.0000
  I   I267      1.0  0.84416  0.00930  0.38262  1.0000
  I   I268      1.0  0.75379  0.41963  0.64818  1.0000
  I   I269      1.0  0.81319  0.97128  0.81371  1.0000
  I   I270      1.0  0.07750  0.20878  0.46781  1.0000
  I   I271      1.0  0.91922  0.13930  0.02265  1.0000
  I   I272      1.0  0.70561  0.36446  0.19702  1.0000
  I   I273      1.0  0.18928  0.82987  0.23536  1.0000
  I   I274      1.0  0.49948  0.47394  0.05136  1.0000
  I   I275      1.0  0.65278  0.57118  0.49301  1.0000
  I   I276      1.0  0.78419  0.77707  0.89201  1.0000
  I   I277      1.0  0.03228  0.49340  0.37725  1.0000
  I   I278      1.0  0.56377  0.31759  0.12413  1.0000
  I   I279      1.0  0.93903  0.73078  0.98681  1.0000
  I   I280      1.0  0.62270  0.77447  0.30717  1.0000
  I   I281      1.0  0.61754  0.63255  0.70598  1.0000
  I   I282      1.0  0.86103  0.45648  0.10866  1.0000
  I   I283      1.0  0.68253  0.17933  0.36844  1.0000
  I   I284      1.0  0.90960  0.46353  0.79706  1.0000
  I   I285      1.0  0.28201  0.68343  0.35404  1.0000
  I   I286      1.0  0.39175  0.44879  0.37629  1.0000
  I   I287      1.0  0.16588  0.45609  0.11301  1.0000
  I   I288      1.0  0.51884  0.39803  0.63199  1.0000
  I   I289      1.0  0.70679  0.68031  0.60888  1.0000
  I   I290      1.0  0.05319  0.21878  0.92246  1.0000
  I   I291      1.0  0.57989  0.98454  0.21501  1.0000
  I   I292      1.0  0.08420  0.04993  0.81401  1.0000
  I   I293      1.0  0.43131  0.64489  0.84419  1.0000
  I   I294      1.0  0.33876  0.37801  0.61398  1.0000
  I   I295      1.0  0.87502  0.19864  0.33829  1.0000
  I   I296      1.0  0.49394  0.32135  0.84923  1.0000
  I   I297      1.0  0.27204  0.93367  0.84578  1.0000
  I   I298      1.0  0.69056  0.11598  0.38205  1.0000
  I   I299      1.0  0.68384  0.00041  0.94784  1.0000
  I   I300      1.0  0.15851  0.55873  0.50054  1.0000
  I   I301      1.0  0.68618  0.10526  0.71195  1.0000
  I   I302      1.0  0.10117  0.07764  0.66827  1.0000
  I   I303      1.0  0.21461  0.20134  0.03480  1.0000
  I   I304      1.0  0.11942  0.67824  0.27272  1.0000
  I   I305      1.0  0.65142  0.99319  0.05756  1.0000
  I   I306      1.0  0.48219  0.36859  0.12485  1.0000
  I   I307      1.0  0.51446  0.66734  0.25396  1.0000
  I   I308      1.0  0.36996  0.83305  0.59893  1.0000
  I   I309      1.0  0.34932  0.98740  0.95744  1.0000
  I   I310      1.0  0.65277  0.51421  0.04850  1.0000
  I   I311      1.0  0.48718  0.08565  0.63351  1.0000
  I   I312      1.0  0.17588  0.04543  0.27975  1.0000
  I   I313      1.0  0.81331  0.91302  0.43084  1.0000
  I   I314      1.0  0.67742  0.78769  0.89413  1.0000
  I   I315      1.0  0.38847  0.84981  0.14058  1.0000
  I   I316      1.0  0.06165  0.22938  0.59727  1.0000
  I   I317      1.0  0.71822  0.46982  0.72753  1.0000
  I   I318      1.0  0.87558  0.96870  0.68365  1.0000
  I   I319      1.0  0.49616  0.48096  0.24128  1.0000
  I   I320      1.0  0.78703  0.09675  0.72688  1.0000
  I   I321      1.0  0.64458  0.37574  0.19288  1.0000
  I   I322      1.0  0.54790  0.45748  0.92426  1.0000
  I   I323      1.0  0.67814  0.50965  0.46160  1.0000
  I   I324      1.0  0.72562  0.81871  0.05821  1.0000
  I   I325      1.0  0.98599  0.54720  0.44496  1.0000
  I   I326      1.0  0.53709  0.31242  0.22294  1.0000
  I   I327      1.0  0.00608  0.71398  0.08037  1.0000
  I   I328      1.0  0.27538  0.14567  0.02054  1.0000
  I   I329      1.0  0.57222  0.70195  0.69805  1.0000
  I   I330      1.0  0.81371  0.50152  0.03589  1.0000
  I   I331      1.0  0.27636  0.60725  0.37736  1.0000
  I   I332      1.0  0.65946  0.23259  0.33709  1.0000
  I   I333      1.0  0.82400  0.50044  0.61335  1.0000
  I   I334      1.0  0.57883  0.37092  0.57668  1.0000
  I   I335      1.0  0.32795  0.48835  0.34347  1.0000
  I   I336      1.0  0.10691  0.51737  0.14528  1.0000
  I   I337      1.0  0.51071  0.74658  0.55794  1.0000
  I   I338      1.0  0.10019  0.15169  0.89002  1.0000
  I   I339      1.0  0.52282  0.05544  0.21301  1.0000
  I   I340      1.0  0.02612  0.01055  0.73428  1.0000
  I   I341      1.0  0.75687  0.79885  0.68228  1.0000
  I   I342      1.0  0.35655  0.36942  0.50635  1.0000
  I   I343      1.0  0.84980  0.16344  0.34855  1.0000
  I   I344      1.0  0.43311  0.36504  0.85399  1.0000
  I   I345      1.0  0.21791  0.92535  0.80187  1.0000
  I   I346      1.0  0.61044  0.21477  0.27390  1.0000
  I   I347      1.0  0.29946  0.20847  0.64403  1.0000
  I   I348      1.0  0.08604  0.61497  0.40999  1.0000
  I   I349      1.0  0.63120  0.11913  0.78944  1.0000
  I   I350      1.0  0.12210  0.13020  0.63329  1.0000
  I   I351      1.0  0.11915  0.03019  0.57228  1.0000
  I   I352      1.0  0.12943  0.78828  0.16976  1.0000
  I   I353      1.0  0.02695  0.34509  0.67447  1.0000
  I   I354      1.0  0.42387  0.37064  0.23693  1.0000
  I   I355      1.0  0.46445  0.58685  0.27886  1.0000
  I   I356      1.0  0.02758  0.37813  0.08738  1.0000
  I   I357      1.0  0.34317  0.03228  0.88704  1.0000
  I   I358      1.0  0.17700  0.77517  0.45268  1.0000
  I   I359      1.0  0.46468  0.04526  0.60055  1.0000
  I   I360      1.0  0.13687  0.01784  0.21818  1.0000
  I   I361      1.0  0.87149  0.89502  0.35155  1.0000
  I   I362      1.0  0.60930  0.84211  0.84273  1.0000
  I   I363      1.0  0.42720  0.93436  0.10776  1.0000
  I   I364      1.0  0.02140  0.18974  0.65107  1.0000
  I   I365      1.0  0.70183  0.45243  0.57295  1.0000
  I   I366      1.0  0.91364  0.89010  0.75330  1.0000
  I   I367      1.0  0.50688  0.42602  0.30819  1.0000
  I   I368      1.0  0.82798  0.06771  0.63156  1.0000
  I   I369      1.0  0.71775  0.33714  0.29098  1.0000
  I   I370      1.0  0.57896  0.42054  0.02419  1.0000
  I   I371      1.0  0.67553  0.58921  0.40483  1.0000
  I   I372      1.0  0.81417  0.75899  0.01490  1.0000
  I   I373      1.0  0.99146  0.49274  0.47872  1.0000
  I   I374      1.0  0.57030  0.31554  0.97962  1.0000
  I   I375      1.0  0.97096  0.66559  0.08412  1.0000
  I   I376      1.0  0.58189  0.82837  0.39274  1.0000
  I   I377      1.0  0.52606  0.69393  0.64835  1.0000
  I   I378      1.0  0.83574  0.41828  0.09589  1.0000
  I   I379      1.0  0.26908  0.59850  0.22961  1.0000
  I   I380      1.0  0.91904  0.90257  0.03125  1.0000
  I   I381      1.0  0.85561  0.46677  0.73839  1.0000
  I   I382      1.0  0.52867  0.45622  0.65278  1.0000
  I   I383      1.0  0.38213  0.48523  0.29430  1.0000
  I   I384      1.0  0.19776  0.49231  0.10301  1.0000
