data_image0
_chemical_formula_structural       Ti96I384
_chemical_formula_sum              "Ti96 I384"
_cell_length_a       71.81
_cell_length_b       71.7314
_cell_length_c       35.1166
_cell_angle_alpha    88.7757
_cell_angle_beta     88.7757
_cell_angle_gamma    62.1586

_space_group_name_H-M_alt    "P 1"
_space_group_IT_number       1

loop_
  _space_group_symop_operation_xyz
  'x, y, z'

loop_
  _atom_site_type_symbol
  _atom_site_label
  _atom_site_symmetry_multiplicity
  _atom_site_fract_x
  _atom_site_fract_y
  _atom_site_fract_z
  _atom_site_occupancy
  Ti  Ti1       1.0  0.39770  0.68164  0.27227  1.0000
  Ti  Ti2       1.0  0.06844  0.01619  0.07850  1.0000
  Ti  Ti3       1.0  0.25992  0.21554  0.49320  1.0000
  Ti  Ti4       1.0  0.93945  0.66104  0.91370  1.0000
  Ti  Ti5       1.0  0.44103  0.52620  0.20772  1.0000
  Ti  Ti6       1.0  0.75559  0.91795  0.42991  1.0000
  Ti  Ti7       1.0  0.56713  0.92512  0.38498  1.0000
  Ti  Ti8       1.0  0.10990  0.56635  0.25782  1.0000
  Ti  Ti9       1.0  0.41616  0.28259  0.62759  1.0000
  Ti  Ti10      1.0  0.45516  0.55288  0.77450  1.0000
  Ti  Ti11      1.0  0.25607  0.30126  0.43218  1.0000
  Ti  Ti12      1.0  0.95664  0.48259  0.10057  1.0000
  Ti  Ti13      1.0  0.75125  0.57942  0.11505  1.0000
  Ti  Ti14      1.0  0.99166  0.68298  0.81463  1.0000
  Ti  Ti15      1.0  0.66590  0.61720  0.61475  1.0000
  Ti  Ti16      1.0  0.49683  0.51127  0.67919  1.0000
  Ti  Ti17      1.0  0.26050  0.30689  0.82153  1.0000
  Ti  Ti18      1.0  0.31589  0.11774  0.35825  1.0000
  Ti  Ti19      1.0  0.24109  0.64700  0.49581  1.0000
  Ti  Ti20      1.0  0.23263  0.83377  0.42681  1.0000
  Ti  Ti21      1.0  0.17090  0.55546  0.25996  1.0000
  Ti  Ti22      1.0  0.85152  0.53788  0.38022  1.0000
  Ti  Ti23      1.0  0.17863  0.08187  0.40205  1.0000
  Ti  Ti24      1.0  0.89704  0.86413  0.62343  1.0000
  Ti  Ti25      1.0  0.44505  0.41898  0.34142  1.0000
  Ti  Ti26      1.0  0.68899  0.91276  0.73029  1.0000
  Ti  Ti27      1.0  0.74715  0.27387  0.16504  1.0000
  Ti  Ti28      1.0  0.35223  0.01144  0.96788  1.0000
  Ti  Ti29      1.0  0.23508  0.76972  0.86945  1.0000
  Ti  Ti30      1.0  0.27798  0.86334  0.93341  1.0000
  Ti  Ti31      1.0  0.49734  0.12009  0.28242  1.0000
  Ti  Ti32      1.0  0.31899  0.90166  0.14680  1.0000
  Ti  Ti33      1.0  0.28574  0.60553  0.64696  1.0000
  Ti  Ti34      1.0  0.66701  0.50955  0.93345  1.0000
  Ti  Ti35      1.0  0.10963  0.41976  0.42962  1.0000
  Ti  Ti36      1.0  0.87832  0.25066  0.80584  1.0000
  Ti  Ti37      1.0  0.18514  0.11652  0.60386  1.0000
  Ti  Ti38      1.0  0.84171  0.03767  0.67137  1.0000
  Ti  Ti39      1.0  0.48794  0.71812  0.18912  1.0000
  Ti  Ti40      1.0  0.40582  0.69676  0.83061  1.0000
  Ti  Ti41      1.0  0.55086  0.33709  0.70081  1.0000
  Ti  Ti42      1.0  0.01447  0.78596  0.44588  1.0000
  Ti  Ti43      1.0  0.10461  0.94009  0.48511  1.0000
  Ti  Ti44      1.0  0.51583  0.38610  0.73387  1.0000
  Ti  Ti45      1.0  0.12492  0.26746  0.37797  1.0000
  Ti  Ti46      1.0  0.36507  0.98571  0.51682  1.0000
  Ti  Ti47      1.0  0.85137  0.07726  0.81741  1.0000
  Ti  Ti48      1.0  0.03464  0.90792  0.30378  1.0000
  Ti  Ti49      1.0  0.01465  0.86857  0.03439  1.0000
  Ti  Ti50      1.0  0.73099  0.44775  0.16508  1.0000
  Ti  Ti51      1.0  0.12626  0.98629  0.12317  1.0000
  Ti  Ti52      1.0  0.69724  0.36126  0.51989  1.0000
  Ti  Ti53      1.0  0.53424  0.69869  0.74506  1.0000
  Ti  Ti54      1.0  0.76952  0.90463  0.96969  1.0000
  Ti  Ti55      1.0  0.57304  0.92324  0.48248  1.0000
  Ti  Ti56      1.0  0.29511  0.60203  0.87096  1.0000
  Ti  Ti57      1.0  0.35647  0.27076  0.62165  1.0000
  Ti  Ti58      1.0  0.42996  0.55387  0.47868  1.0000
  Ti  Ti59      1.0  0.89169  0.97020  0.06453  1.0000
  Ti  Ti60      1.0  0.98550  0.45589  0.21024  1.0000
  Ti  Ti61      1.0  0.64353  0.62664  0.53980  1.0000
  Ti  Ti62      1.0  0.73095  0.62033  0.16057  1.0000
  Ti  Ti63      1.0  0.91564  0.84342  0.20660  1.0000
  Ti  Ti64      1.0  0.32379  0.15453  0.37821  1.0000
  Ti  Ti65      1.0  0.05239  0.76755  0.26546  1.0000
  Ti  Ti66      1.0  0.77745  0.21341  0.73597  1.0000
  Ti  Ti67      1.0  0.84887  0.67634  0.11978  1.0000
  Ti  Ti68      1.0  0.26835  0.67151  0.42842  1.0000
  Ti  Ti69      1.0  0.72047  0.87013  0.71942  1.0000
  Ti  Ti70      1.0  0.82743  0.68818  0.01962  1.0000
  Ti  Ti71      1.0  0.16911  0.08613  0.25973  1.0000
  Ti  Ti72      1.0  0.89049  0.03960  0.76772  1.0000
  Ti  Ti73      1.0  0.82171  0.24829  0.13698  1.0000
  Ti  Ti74      1.0  0.44494  0.37966  0.43653  1.0000
  Ti  Ti75      1.0  0.43311  0.03333  0.03050  1.0000
  Ti  Ti76      1.0  0.22400  0.01942  0.07415  1.0000
  Ti  Ti77      1.0  0.19499  0.47222  0.51626  1.0000
  Ti  Ti78      1.0  0.23843  0.76381  0.99812  1.0000
  Ti  Ti79      1.0  0.77269  0.69580  0.55434  1.0000
  Ti  Ti80      1.0  0.99920  0.33593  0.64503  1.0000
  Ti  Ti81      1.0  0.35124  0.90354  0.09243  1.0000
  Ti  Ti82      1.0  0.02678  0.22246  0.74399  1.0000
  Ti  Ti83      1.0  0.14079  0.35808  0.49689  1.0000
  Ti  Ti84      1.0  0.90049  0.19367  0.80785  1.0000
  Ti  Ti85      1.0  0.22505  0.08758  0.55708  1.0000
  Ti  Ti86      1.0  0.73096  0.27999  0.66535  1.0000
  Ti  Ti87      1.0  0.07718  0.26619  0.44712  1.0000
  Ti  Ti88      1.0  0.67129  0.38259  0.45888  1.0000
  Ti  Ti89      1.0  0.47694  0.30311  0.96743  1.0000
  Ti  Ti90      1.0  0.96114  0.77883  0.46232  1.0000
  Ti  Ti91      1.0  0.26824  0.50566  0.36646  1.0000
  Ti  Ti92      1.0  0.41632  0.72000  0.52403  1.0000
  Ti  Ti93      1.0  0.06736  0.28845  0.95574  1.0000
  Ti  Ti94      1.0  0.98765  0.90087  0.32294  1.0000
  Ti  Ti95      1.0  0.35894  0.59754  0.10423  1.0000
  Ti  Ti96      1.0  0.92347  0.28637  0.21294  1.0000
  I   I1        1.0  0.85008  0.09598  0.88782  1.0000
  I   I2        1.0  0.10330  0.02619  0.08659  1.0000
  I   I3        1.0  0.05420  0.84326  0.04057  1.0000
  I   I4        1.0  0.53083  0.66756  0.77136  1.0000
  I   I5        1.0  0.78533  0.87783  0.44885  1.0000
  I   I6        1.0  0.73504  0.91015  0.01665  1.0000
  I   I7        1.0  0.17389  0.56981  0.32397  1.0000
  I   I8        1.0  0.29029  0.57655  0.91601  1.0000
  I   I9        1.0  0.31827  0.28249  0.66860  1.0000
  I   I10       1.0  0.47656  0.55179  0.70479  1.0000
  I   I11       1.0  0.25000  0.31496  0.50445  1.0000
  I   I12       1.0  0.46774  0.53818  0.19234  1.0000
  I   I13       1.0  0.77580  0.55791  0.06495  1.0000
  I   I14       1.0  0.88676  0.83241  0.23424  1.0000
  I   I15       1.0  0.64842  0.65675  0.60048  1.0000
  I   I16       1.0  0.41593  0.58813  0.79042  1.0000
  I   I17       1.0  0.77806  0.18208  0.69960  1.0000
  I   I18       1.0  0.33340  0.07243  0.35996  1.0000
  I   I19       1.0  0.21872  0.82632  0.49424  1.0000
  I   I20       1.0  0.25700  0.31644  0.36858  1.0000
  I   I21       1.0  0.14573  0.53891  0.20796  1.0000
  I   I22       1.0  0.18445  0.10624  0.33201  1.0000
  I   I23       1.0  0.14661  0.11060  0.42783  1.0000
  I   I24       1.0  0.82871  0.68763  0.19029  1.0000
  I   I25       1.0  0.46456  0.38479  0.30576  1.0000
  I   I26       1.0  0.43130  0.05880  0.08319  1.0000
  I   I27       1.0  0.72391  0.25826  0.14510  1.0000
  I   I28       1.0  0.33785  0.01285  0.89811  1.0000
  I   I29       1.0  0.26788  0.77512  0.84351  1.0000
  I   I30       1.0  0.31650  0.84576  0.94398  1.0000
  I   I31       1.0  0.97294  0.37155  0.62178  1.0000
  I   I32       1.0  0.32336  0.90708  0.22438  1.0000
  I   I33       1.0  0.78208  0.67890  0.48482  1.0000
  I   I34       1.0  0.12045  0.35532  0.56158  1.0000
  I   I35       1.0  0.86184  0.28029  0.85795  1.0000
  I   I36       1.0  0.64371  0.48956  0.93648  1.0000
  I   I37       1.0  0.19275  0.14645  0.62366  1.0000
  I   I38       1.0  0.53188  0.69109  0.18232  1.0000
  I   I39       1.0  0.20199  0.07207  0.60191  1.0000
  I   I40       1.0  0.56511  0.35597  0.74644  1.0000
  I   I41       1.0  0.93471  0.76316  0.47332  1.0000
  I   I42       1.0  0.42154  0.65514  0.82993  1.0000
  I   I43       1.0  0.45414  0.51657  0.44490  1.0000
  I   I44       1.0  0.53609  0.40620  0.72110  1.0000
  I   I45       1.0  0.14854  0.28752  0.36234  1.0000
  I   I46       1.0  0.33056  0.62049  0.15259  1.0000
  I   I47       1.0  0.86961  0.08677  0.75652  1.0000
  I   I48       1.0  0.98469  0.94019  0.31878  1.0000
  I   I49       1.0  0.98945  0.85585  0.05872  1.0000
  I   I50       1.0  0.12429  0.00673  0.18171  1.0000
  I   I51       1.0  0.07692  0.99539  0.14093  1.0000
  I   I52       1.0  0.97909  0.31329  0.66388  1.0000
  I   I53       1.0  0.49710  0.72781  0.71870  1.0000
  I   I54       1.0  0.79157  0.86803  0.99799  1.0000
  I   I55       1.0  0.60792  0.91399  0.40593  1.0000
  I   I56       1.0  0.18461  0.57060  0.21028  1.0000
  I   I57       1.0  0.33101  0.29221  0.56984  1.0000
  I   I58       1.0  0.44860  0.53284  0.83223  1.0000
  I   I59       1.0  0.86889  0.00807  0.05303  1.0000
  I   I60       1.0  0.94517  0.47090  0.03514  1.0000
  I   I61       1.0  0.73198  0.65925  0.17924  1.0000
  I   I62       1.0  0.73196  0.62554  0.08033  1.0000
  I   I63       1.0  0.92290  0.82925  0.13878  1.0000
  I   I64       1.0  0.50967  0.53295  0.62586  1.0000
  I   I65       1.0  0.02627  0.79905  0.30747  1.0000
  I   I66       1.0  0.77377  0.19962  0.80187  1.0000
  I   I67       1.0  0.25463  0.60742  0.50702  1.0000
  I   I68       1.0  0.25107  0.79273  0.41227  1.0000
  I   I69       1.0  0.68850  0.87816  0.77675  1.0000
  I   I70       1.0  0.78472  0.71108  0.01645  1.0000
  I   I71       1.0  0.17216  0.05405  0.43909  1.0000
  I   I72       1.0  0.85210  0.03872  0.79891  1.0000
  I   I73       1.0  0.85025  0.21008  0.11612  1.0000
  I   I74       1.0  0.67413  0.93434  0.65603  1.0000
  I   I75       1.0  0.67756  0.88579  0.68741  1.0000
  I   I76       1.0  0.21167  0.49076  0.47978  1.0000
  I   I77       1.0  0.18781  0.44243  0.48475  1.0000
  I   I78       1.0  0.39961  0.64510  0.26706  1.0000
  I   I79       1.0  0.31107  0.57273  0.68566  1.0000
  I   I80       1.0  0.45806  0.14656  0.30199  1.0000
  I   I81       1.0  0.32267  0.90288  0.03673  1.0000
  I   I82       1.0  0.02394  0.18903  0.70821  1.0000
  I   I83       1.0  0.08888  0.40665  0.38605  1.0000
  I   I84       1.0  0.92008  0.23536  0.77580  1.0000
  I   I85       1.0  0.17149  0.12570  0.53349  1.0000
  I   I86       1.0  0.81495  0.20943  0.74568  1.0000
  I   I87       1.0  0.49939  0.73405  0.24467  1.0000
  I   I88       1.0  0.38590  0.71693  0.89253  1.0000
  I   I89       1.0  0.57780  0.29807  0.73079  1.0000
  I   I90       1.0  0.92505  0.81697  0.45293  1.0000
  I   I91       1.0  0.27661  0.48617  0.30101  1.0000
  I   I92       1.0  0.43165  0.73648  0.57201  1.0000
  I   I93       1.0  0.49703  0.39679  0.80352  1.0000
  I   I94       1.0  0.06683  0.87160  0.27134  1.0000
  I   I95       1.0  0.33029  0.99741  0.47673  1.0000
  I   I96       1.0  0.89017  0.30381  0.17355  1.0000
  I   I97       1.0  0.22580  0.24089  0.52577  1.0000
  I   I98       1.0  0.40734  0.71005  0.22126  1.0000
  I   I99       1.0  0.15930  0.98337  0.08658  1.0000
  I   I100      1.0  0.92047  0.70172  0.93120  1.0000
  I   I101      1.0  0.69751  0.32958  0.55509  1.0000
  I   I102      1.0  0.44813  0.49357  0.16812  1.0000
  I   I103      1.0  0.57696  0.89044  0.34764  1.0000
  I   I104      1.0  0.56129  0.91846  0.54913  1.0000
  I   I105      1.0  0.44977  0.26510  0.58057  1.0000
  I   I106      1.0  0.96278  0.51376  0.06826  1.0000
  I   I107      1.0  0.48664  0.55389  0.80725  1.0000
  I   I108      1.0  0.98325  0.43971  0.13111  1.0000
  I   I109      1.0  0.65730  0.60989  0.68308  1.0000
  I   I110      1.0  0.68753  0.63993  0.15702  1.0000
  I   I111      1.0  0.94826  0.83532  0.25162  1.0000
  I   I112      1.0  0.28498  0.15488  0.38409  1.0000
  I   I113      1.0  0.09019  0.76089  0.28291  1.0000
  I   I114      1.0  0.29594  0.29990  0.77626  1.0000
  I   I115      1.0  0.88439  0.65134  0.14825  1.0000
  I   I116      1.0  0.83392  0.65725  0.98119  1.0000
  I   I117      1.0  0.21003  0.66528  0.45164  1.0000
  I   I118      1.0  0.86203  0.55583  0.32743  1.0000
  I   I119      1.0  0.83343  0.71000  0.96176  1.0000
  I   I120      1.0  0.89620  0.04955  0.83906  1.0000
  I   I121      1.0  0.77269  0.29307  0.14002  1.0000
  I   I122      1.0  0.45631  0.44888  0.33928  1.0000
  I   I123      1.0  0.43776  0.05166  0.97209  1.0000
  I   I124      1.0  0.26825  0.83312  0.91944  1.0000
  I   I125      1.0  0.33833  0.99047  0.01037  1.0000
  I   I126      1.0  0.20104  0.79006  0.82442  1.0000
  I   I127      1.0  0.29920  0.61572  0.58650  1.0000
  I   I128      1.0  0.90811  0.65278  0.92014  1.0000
  I   I129      1.0  0.36152  0.92896  0.06166  1.0000
  I   I130      1.0  0.89674  0.16058  0.80871  1.0000
  I   I131      1.0  0.98564  0.24131  0.75508  1.0000
  I   I132      1.0  0.12853  0.42305  0.36663  1.0000
  I   I133      1.0  0.47042  0.69735  0.21907  1.0000
  I   I134      1.0  0.82758  0.08012  0.66848  1.0000
  I   I135      1.0  0.74888  0.26116  0.73633  1.0000
  I   I136      1.0  0.97789  0.79518  0.40011  1.0000
  I   I137      1.0  0.67986  0.41331  0.48249  1.0000
  I   I138      1.0  0.48674  0.26287  0.97930  1.0000
  I   I139      1.0  0.24019  0.54180  0.39453  1.0000
  I   I140      1.0  0.37678  0.74098  0.53807  1.0000
  I   I141      1.0  0.10895  0.27513  0.96015  1.0000
  I   I142      1.0  0.01058  0.89939  0.24963  1.0000
  I   I143      1.0  0.34421  0.99115  0.57540  1.0000
  I   I144      1.0  0.96022  0.26123  0.17508  1.0000
  I   I145      1.0  0.43057  0.67779  0.30807  1.0000
  I   I146      1.0  0.05487  0.99561  0.03037  1.0000
  I   I147      1.0  0.27079  0.17709  0.50403  1.0000
  I   I148      1.0  0.66826  0.39632  0.38732  1.0000
  I   I149      1.0  0.40257  0.55546  0.21048  1.0000
  I   I150      1.0  0.75682  0.95499  0.43571  1.0000
  I   I151      1.0  0.60376  0.92036  0.51875  1.0000
  I   I152      1.0  0.07741  0.59465  0.30180  1.0000
  I   I153      1.0  0.38895  0.27848  0.57906  1.0000
  I   I154      1.0  0.06790  0.94597  0.51304  1.0000
  I   I155      1.0  0.23476  0.28315  0.42703  1.0000
  I   I156      1.0  0.02367  0.44660  0.22300  1.0000
  I   I157      1.0  0.70130  0.61473  0.63539  1.0000
  I   I158      1.0  0.88917  0.87915  0.18004  1.0000
  I   I159      1.0  0.67969  0.62526  0.51295  1.0000
  I   I160      1.0  0.33793  0.16560  0.43792  1.0000
  I   I161      1.0  0.25996  0.27241  0.85697  1.0000
  I   I162      1.0  0.29655  0.11779  0.29561  1.0000
  I   I163      1.0  0.21902  0.65486  0.56374  1.0000
  I   I164      1.0  0.28506  0.69632  0.44428  1.0000
  I   I165      1.0  0.13266  0.59116  0.24085  1.0000
  I   I166      1.0  0.82196  0.52944  0.36155  1.0000
  I   I167      1.0  0.20377  0.08714  0.45312  1.0000
  I   I168      1.0  0.87481  0.84436  0.61103  1.0000
  I   I169      1.0  0.46977  0.39965  0.40069  1.0000
  I   I170      1.0  0.41506  0.41765  0.40497  1.0000
  I   I171      1.0  0.83483  0.27054  0.09731  1.0000
  I   I172      1.0  0.18560  0.04908  0.08574  1.0000
  I   I173      1.0  0.21246  0.76477  0.93681  1.0000
  I   I174      1.0  0.26887  0.87549  0.00460  1.0000
  I   I175      1.0  0.53573  0.09670  0.31118  1.0000
  I   I176      1.0  0.27822  0.91590  0.12868  1.0000
  I   I177      1.0  0.76917  0.73270  0.52953  1.0000
  I   I178      1.0  0.05118  0.22176  0.68110  1.0000
  I   I179      1.0  0.14915  0.38531  0.45076  1.0000
  I   I180      1.0  0.87553  0.22419  0.75550  1.0000
  I   I181      1.0  0.25633  0.04856  0.53319  1.0000
  I   I182      1.0  0.75435  0.29135  0.62926  1.0000
  I   I183      1.0  0.12029  0.26210  0.30411  1.0000
  I   I184      1.0  0.66001  0.39324  0.54498  1.0000
  I   I185      1.0  0.46854  0.32361  0.03410  1.0000
  I   I186      1.0  0.03204  0.79093  0.51004  1.0000
  I   I187      1.0  0.43764  0.69936  0.46555  1.0000
  I   I188      1.0  0.47295  0.40816  0.70744  1.0000
  I   I189      1.0  0.08079  0.28892  0.37657  1.0000
  I   I190      1.0  0.39393  0.99923  0.52574  1.0000
  I   I191      1.0  0.69522  0.45062  0.18904  1.0000
  I   I192      1.0  0.97385  0.90179  0.39854  1.0000
  I   I193      1.0  0.25242  0.73042  0.86610  1.0000
  I   I194      1.0  0.75686  0.44786  0.21438  1.0000
  I   I195      1.0  0.29143  0.22010  0.51325  1.0000
  I   I196      1.0  0.95019  0.65608  0.98294  1.0000
  I   I197      1.0  0.46016  0.56407  0.48062  1.0000
  I   I198      1.0  0.74597  0.90999  0.36211  1.0000
  I   I199      1.0  0.54060  0.91803  0.42977  1.0000
  I   I200      1.0  0.33934  0.57995  0.85771  1.0000
  I   I201      1.0  0.41363  0.31889  0.60659  1.0000
  I   I202      1.0  0.87871  0.96051  0.12772  1.0000
  I   I203      1.0  0.73320  0.83903  0.66655  1.0000
  I   I204      1.0  0.94711  0.46072  0.23437  1.0000
  I   I205      1.0  0.76124  0.54338  0.16117  1.0000
  I   I206      1.0  0.02689  0.65173  0.82202  1.0000
  I   I207      1.0  0.62587  0.61205  0.58632  1.0000
  I   I208      1.0  0.45210  0.52761  0.71591  1.0000
  I   I209      1.0  0.24104  0.30022  0.76974  1.0000
  I   I210      1.0  0.73416  0.70489  0.53705  1.0000
  I   I211      1.0  0.81946  0.66811  0.08949  1.0000
  I   I212      1.0  0.26591  0.84041  0.43029  1.0000
  I   I213      1.0  0.75446  0.85137  0.75589  1.0000
  I   I214      1.0  0.88586  0.50643  0.39186  1.0000
  I   I215      1.0  0.15479  0.06632  0.22127  1.0000
  I   I216      1.0  0.87038  0.89551  0.66409  1.0000
  I   I217      1.0  0.42680  0.35777  0.41167  1.0000
  I   I218      1.0  0.41068  0.01499  0.06889  1.0000
  I   I219      1.0  0.78624  0.24331  0.13517  1.0000
  I   I220      1.0  0.15701  0.50456  0.51799  1.0000
  I   I221      1.0  0.23369  0.79791  0.93643  1.0000
  I   I222      1.0  0.22073  0.98606  0.09470  1.0000
  I   I223      1.0  0.49323  0.08702  0.26219  1.0000
  I   I224      1.0  0.36121  0.88601  0.16521  1.0000
  I   I225      1.0  0.25227  0.60145  0.63331  1.0000
  I   I226      1.0  0.04991  0.20583  0.80548  1.0000
  I   I227      1.0  0.07981  0.45504  0.43731  1.0000
  I   I228      1.0  0.93103  0.17391  0.75642  1.0000
  I   I229      1.0  0.24081  0.09275  0.62523  1.0000
  I   I230      1.0  0.86588  0.00096  0.70145  1.0000
  I   I231      1.0  0.46246  0.74201  0.13896  1.0000
  I   I232      1.0  0.97097  0.67645  0.87854  1.0000
  I   I233      1.0  0.54293  0.36638  0.65483  1.0000
  I   I234      1.0  0.98271  0.79541  0.50991  1.0000
  I   I235      1.0  0.12006  0.90568  0.44450  1.0000
  I   I236      1.0  0.05012  0.27910  0.01117  1.0000
  I   I237      1.0  0.30029  0.51538  0.35329  1.0000
  I   I238      1.0  0.36933  0.55679  0.09567  1.0000
  I   I239      1.0  0.93441  0.31759  0.20882  1.0000
  I   I240      1.0  0.01517  0.86230  0.31636  1.0000
  I   I241      1.0  0.36598  0.71552  0.29268  1.0000
  I   I242      1.0  0.03443  0.04909  0.10586  1.0000
  I   I243      1.0  0.24583  0.21732  0.41795  1.0000
  I   I244      1.0  0.66321  0.34917  0.47110  1.0000
  I   I245      1.0  0.53925  0.71310  0.81271  1.0000
  I   I246      1.0  0.71829  0.93085  0.46292  1.0000
  I   I247      1.0  0.53546  0.95489  0.36109  1.0000
  I   I248      1.0  0.08170  0.55780  0.21892  1.0000
  I   I249      1.0  0.37369  0.29362  0.66808  1.0000
  I   I250      1.0  0.89815  0.94408  0.00682  1.0000
  I   I251      1.0  0.29531  0.26861  0.44731  1.0000
  I   I252      1.0  0.91796  0.49297  0.11710  1.0000
  I   I253      1.0  0.71423  0.58249  0.10073  1.0000
  I   I254      1.0  0.99471  0.71788  0.79739  1.0000
  I   I255      1.0  0.68102  0.57913  0.58080  1.0000
  I   I256      1.0  0.04587  0.77830  0.19646  1.0000
  I   I257      1.0  0.23301  0.32798  0.87424  1.0000
  I   I258      1.0  0.30139  0.19348  0.35186  1.0000
  I   I259      1.0  0.83002  0.71570  0.10247  1.0000
  I   I260      1.0  0.28701  0.62968  0.47520  1.0000
  I   I261      1.0  0.12001  0.54358  0.31583  1.0000
  I   I262      1.0  0.84151  0.56046  0.44001  1.0000
  I   I263      1.0  0.15363  0.07822  0.33512  1.0000
  I   I264      1.0  0.89560  0.88188  0.55595  1.0000
  I   I265      1.0  0.40963  0.43796  0.30261  1.0000
  I   I266      1.0  0.65032  0.94748  0.74294  1.0000
  I   I267      1.0  0.82884  0.25648  0.20400  1.0000
  I   I268      1.0  0.32103  0.05161  0.98861  1.0000
  I   I269      1.0  0.27081  0.74148  0.95584  1.0000
  I   I270      1.0  0.21989  0.02516  0.00106  1.0000
  I   I271      1.0  0.51120  0.12917  0.21748  1.0000
  I   I272      1.0  0.33040  0.86683  0.10515  1.0000
  I   I273      1.0  0.29362  0.62962  0.69433  1.0000
  I   I274      1.0  0.68483  0.51726  0.99235  1.0000
  I   I275      1.0  0.10332  0.39659  0.49318  1.0000
  I   I276      1.0  0.86867  0.22127  0.86198  1.0000
  I   I277      1.0  0.03385  0.25440  0.75824  1.0000
  I   I278      1.0  0.80635  0.03455  0.67837  1.0000
  I   I279      1.0  0.12175  0.24360  0.44128  1.0000
  I   I280      1.0  0.72127  0.37159  0.55770  1.0000
  I   I281      1.0  0.54269  0.31465  0.64827  1.0000
  I   I282      1.0  0.04171  0.74971  0.42753  1.0000
  I   I283      1.0  0.10820  0.96851  0.43863  1.0000
  I   I284      1.0  0.04657  0.33157  0.95111  1.0000
  I   I285      1.0  0.07448  0.25202  0.51386  1.0000
  I   I286      1.0  0.39654  0.59403  0.11219  1.0000
  I   I287      1.0  0.87862  0.04160  0.68787  1.0000
  I   I288      1.0  0.04524  0.91797  0.36764  1.0000
  I   I289      1.0  0.00492  0.89102  0.96630  1.0000
  I   I290      1.0  0.75382  0.41051  0.13421  1.0000
  I   I291      1.0  0.11092  0.97505  0.05591  1.0000
  I   I292      1.0  0.73359  0.33966  0.47703  1.0000
  I   I293      1.0  0.57327  0.68230  0.71832  1.0000
  I   I294      1.0  0.76813  0.94004  0.99351  1.0000
  I   I295      1.0  0.58686  0.88348  0.47705  1.0000
  I   I296      1.0  0.26882  0.60829  0.81370  1.0000
  I   I297      1.0  0.43851  0.26768  0.68985  1.0000
  I   I298      1.0  0.40154  0.57321  0.53526  1.0000
  I   I299      1.0  0.49265  0.48893  0.62422  1.0000
  I   I300      1.0  0.99805  0.41978  0.24784  1.0000
  I   I301      1.0  0.62514  0.61448  0.48744  1.0000
  I   I302      1.0  0.77942  0.59949  0.15451  1.0000
  I   I303      1.0  0.43764  0.70168  0.84391  1.0000
  I   I304      1.0  0.32948  0.11706  0.43000  1.0000
  I   I305      1.0  0.52889  0.48958  0.72342  1.0000
  I   I306      1.0  0.70041  0.27924  0.63424  1.0000
  I   I307      1.0  0.28077  0.64932  0.37025  1.0000
  I   I308      1.0  0.20249  0.84954  0.37856  1.0000
  I   I309      1.0  0.19418  0.51479  0.26166  1.0000
  I   I310      1.0  0.13022  0.94391  0.53224  1.0000
  I   I311      1.0  0.16508  0.11124  0.20566  1.0000
  I   I312      1.0  0.81326  0.10299  0.78818  1.0000
  I   I313      1.0  0.76733  0.25468  0.22929  1.0000
  I   I314      1.0  0.47989  0.35230  0.46776  1.0000
  I   I315      1.0  0.46997  0.00214  0.04081  1.0000
  I   I316      1.0  0.25460  0.02328  0.10930  1.0000
  I   I317      1.0  0.39493  0.99289  0.96912  1.0000
  I   I318      1.0  0.22670  0.73711  0.02812  1.0000
  I   I319      1.0  0.75724  0.71753  0.62211  1.0000
  I   I320      1.0  0.97101  0.62067  0.89631  1.0000
  I   I321      1.0  0.31558  0.93718  0.11182  1.0000
  I   I322      1.0  0.64007  0.54937  0.92398  1.0000
  I   I323      1.0  0.13756  0.32785  0.45388  1.0000
  I   I324      1.0  0.92877  0.17268  0.86350  1.0000
  I   I325      1.0  0.23401  0.11510  0.52877  1.0000
  I   I326      1.0  0.76846  0.23459  0.66656  1.0000
  I   I327      1.0  0.05082  0.25270  0.41840  1.0000
  I   I328      1.0  0.38365  0.72187  0.78030  1.0000
  I   I329      1.0  0.45028  0.32003  0.91301  1.0000
  I   I330      1.0  0.99750  0.74084  0.46434  1.0000
  I   I331      1.0  0.05529  0.30563  0.47665  1.0000
  I   I332      1.0  0.40899  0.57276  0.41585  1.0000
  I   I333      1.0  0.51443  0.34706  0.73942  1.0000
  I   I334      1.0  0.03976  0.93484  0.25655  1.0000
  I   I335      1.0  0.38303  0.94675  0.49094  1.0000
  I   I336      1.0  0.91295  0.26284  0.25546  1.0000
  I   I337      1.0  0.00975  0.89989  0.07973  1.0000
  I   I338      1.0  0.71543  0.48856  0.13336  1.0000
  I   I339      1.0  0.13568  0.94694  0.14720  1.0000
  I   I340      1.0  0.01554  0.31338  0.58510  1.0000
  I   I341      1.0  0.45498  0.51032  0.27595  1.0000
  I   I342      1.0  0.78703  0.90489  0.90695  1.0000
  I   I343      1.0  0.55913  0.96065  0.44610  1.0000
  I   I344      1.0  0.30732  0.63083  0.89220  1.0000
  I   I345      1.0  0.38719  0.23364  0.63854  1.0000
  I   I346      1.0  0.87156  0.67552  0.04668  1.0000
  I   I347      1.0  0.92623  0.97256  0.07462  1.0000
  I   I348      1.0  0.97425  0.49038  0.16306  1.0000
  I   I349      1.0  0.60735  0.66591  0.53712  1.0000
  I   I350      1.0  0.73705  0.58903  0.20455  1.0000
  I   I351      1.0  0.97343  0.67958  0.75407  1.0000
  I   I352      1.0  0.34300  0.12674  0.31471  1.0000
  I   I353      1.0  0.03633  0.74285  0.25942  1.0000
  I   I354      1.0  0.70631  0.30935  0.71504  1.0000
  I   I355      1.0  0.24927  0.68038  0.50046  1.0000
  I   I356      1.0  0.23266  0.70321  0.40795  1.0000
  I   I357      1.0  0.71494  0.91717  0.78538  1.0000
  I   I358      1.0  0.93437  0.83457  0.64330  1.0000
  I   I359      1.0  0.20824  0.05922  0.26504  1.0000
  I   I360      1.0  0.92786  0.03591  0.73957  1.0000
  I   I361      1.0  0.71678  0.30565  0.19375  1.0000
  I   I362      1.0  0.42112  0.38287  0.49652  1.0000
  I   I363      1.0  0.72463  0.90587  0.68368  1.0000
  I   I364      1.0  0.27219  0.88555  0.86848  1.0000
  I   I365      1.0  0.20716  0.46715  0.58909  1.0000
  I   I366      1.0  0.22427  0.78655  0.06122  1.0000
  I   I367      1.0  0.80193  0.67449  0.60669  1.0000
  I   I368      1.0  0.00993  0.33555  0.71626  1.0000
  I   I369      1.0  0.38989  0.86863  0.09006  1.0000
  I   I370      1.0  0.69210  0.50543  0.87684  1.0000
  I   I371      1.0  0.17863  0.33033  0.51209  1.0000
  I   I372      1.0  0.85580  0.27605  0.75483  1.0000
  I   I373      1.0  0.15900  0.11193  0.65144  1.0000
  I   I374      1.0  0.85407  0.02354  0.60185  1.0000
  I   I375      1.0  0.15763  0.22807  0.36016  1.0000
  I   I376      1.0  0.63181  0.41276  0.46755  1.0000
  I   I377      1.0  0.51211  0.29960  0.92444  1.0000
  I   I378      1.0  0.00728  0.82309  0.42453  1.0000
  I   I379      1.0  0.28064  0.47215  0.40890  1.0000
  I   I380      1.0  0.41711  0.68997  0.57371  1.0000
  I   I381      1.0  0.04150  0.29117  0.89801  1.0000
  I   I382      1.0  0.95619  0.90458  0.27742  1.0000
  I   I383      1.0  0.34823  0.61656  0.03521  1.0000
  I   I384      1.0  0.91289  0.00136  0.78278  1.0000
