data_image0
_chemical_formula_structural       Ti96I384
_chemical_formula_sum              "Ti96 I384"
_cell_length_a       65.2439
_cell_length_b       64.9702
_cell_length_c       31.6958
_cell_angle_alpha    88.7757
_cell_angle_beta     88.7757
_cell_angle_gamma    62.1586

_space_group_name_H-M_alt    "P 1"
_space_group_IT_number       1

loop_
  _space_group_symop_operation_xyz
  'x, y, z'

loop_
  _atom_site_type_symbol
  _atom_site_label
  _atom_site_symmetry_multiplicity
  _atom_site_fract_x
  _atom_site_fract_y
  _atom_site_fract_z
  _atom_site_occupancy
  Ti  Ti1       1.0  0.55518  0.83585  0.64414  1.0000
  Ti  Ti2       1.0  0.34079  0.11301  0.33886  1.0000
  Ti  Ti3       1.0  0.97836  0.64145  0.25147  1.0000
  Ti  Ti4       1.0  0.04912  0.01523  0.01142  1.0000
  Ti  Ti5       1.0  0.00091  0.79076  0.65630  1.0000
  Ti  Ti6       1.0  0.42452  0.26034  0.95998  1.0000
  Ti  Ti7       1.0  0.85069  0.99803  0.16467  1.0000
  Ti  Ti8       1.0  0.48578  0.18205  0.22201  1.0000
  Ti  Ti9       1.0  0.25761  0.80575  0.40800  1.0000
  Ti  Ti10      1.0  0.72368  0.89993  0.04579  1.0000
  Ti  Ti11      1.0  0.13325  0.52885  0.71448  1.0000
  Ti  Ti12      1.0  0.08586  0.64822  0.40531  1.0000
  Ti  Ti13      1.0  0.18329  0.25349  0.59758  1.0000
  Ti  Ti14      1.0  0.05890  0.05257  0.45118  1.0000
  Ti  Ti15      1.0  0.61013  0.27395  0.74805  1.0000
  Ti  Ti16      1.0  0.62738  0.90615  0.74604  1.0000
  Ti  Ti17      1.0  0.36002  0.15430  0.63004  1.0000
  Ti  Ti18      1.0  0.12304  0.63839  0.98449  1.0000
  Ti  Ti19      1.0  0.60824  0.81872  0.39684  1.0000
  Ti  Ti20      1.0  0.46487  0.99046  0.79921  1.0000
  Ti  Ti21      1.0  0.16057  0.05928  0.88002  1.0000
  Ti  Ti22      1.0  0.61789  0.41375  0.65494  1.0000
  Ti  Ti23      1.0  0.62256  0.06646  0.34767  1.0000
  Ti  Ti24      1.0  0.95550  0.93463  0.34531  1.0000
  Ti  Ti25      1.0  0.69559  0.72986  0.15910  1.0000
  Ti  Ti26      1.0  0.44740  0.91792  0.96215  1.0000
  Ti  Ti27      1.0  0.06517  0.79880  0.31698  1.0000
  Ti  Ti28      1.0  0.59966  0.35408  0.05946  1.0000
  Ti  Ti29      1.0  0.81827  0.94020  0.46755  1.0000
  Ti  Ti30      1.0  0.82803  0.27395  0.25227  1.0000
  Ti  Ti31      1.0  0.81326  0.26567  0.62537  1.0000
  Ti  Ti32      1.0  0.63745  0.23347  0.23697  1.0000
  Ti  Ti33      1.0  0.37334  0.88966  0.74549  1.0000
  Ti  Ti34      1.0  0.57357  0.47447  0.91563  1.0000
  Ti  Ti35      1.0  0.76930  0.47681  0.56336  1.0000
  Ti  Ti36      1.0  0.89740  0.58203  0.53304  1.0000
  Ti  Ti37      1.0  0.99883  0.36633  0.31345  1.0000
  Ti  Ti38      1.0  0.49508  0.33882  0.03914  1.0000
  Ti  Ti39      1.0  0.98610  0.96810  0.53982  1.0000
  Ti  Ti40      1.0  0.20540  0.07952  0.14471  1.0000
  Ti  Ti41      1.0  0.61061  0.63479  0.11484  1.0000
  Ti  Ti42      1.0  0.90894  0.28413  0.05794  1.0000
  Ti  Ti43      1.0  0.72960  0.11919  0.48363  1.0000
  Ti  Ti44      1.0  0.81208  0.54089  0.16279  1.0000
  Ti  Ti45      1.0  0.43773  0.55042  0.54193  1.0000
  Ti  Ti46      1.0  0.30144  0.46231  0.14052  1.0000
  Ti  Ti47      1.0  0.07715  0.45383  0.05581  1.0000
  Ti  Ti48      1.0  0.48556  0.72997  0.55975  1.0000
  Ti  Ti49      1.0  0.57320  0.80057  0.75691  1.0000
  Ti  Ti50      1.0  0.03697  0.20374  0.37824  1.0000
  Ti  Ti51      1.0  0.40483  0.10939  0.32420  1.0000
  Ti  Ti52      1.0  0.00250  0.99115  0.00658  1.0000
  Ti  Ti53      1.0  0.17884  0.62400  0.63519  1.0000
  Ti  Ti54      1.0  0.46302  0.21185  0.97358  1.0000
  Ti  Ti55      1.0  0.83960  0.95929  0.05903  1.0000
  Ti  Ti56      1.0  0.42268  0.23235  0.31162  1.0000
  Ti  Ti57      1.0  0.31592  0.74664  0.46331  1.0000
  Ti  Ti58      1.0  0.66041  0.14953  0.53618  1.0000
  Ti  Ti59      1.0  0.67828  0.93166  0.03007  1.0000
  Ti  Ti60      1.0  0.06707  0.61239  0.43278  1.0000
  Ti  Ti61      1.0  0.58192  0.31789  0.84292  1.0000
  Ti  Ti62      1.0  0.23398  0.21375  0.55782  1.0000
  Ti  Ti63      1.0  0.09537  0.00250  0.45231  1.0000
  Ti  Ti64      1.0  0.12786  0.63288  0.88181  1.0000
  Ti  Ti65      1.0  0.14575  0.34080  0.74189  1.0000
  Ti  Ti66      1.0  0.48673  0.37304  0.26542  1.0000
  Ti  Ti67      1.0  0.58026  0.79035  0.34656  1.0000
  Ti  Ti68      1.0  0.07091  0.35445  0.96885  1.0000
  Ti  Ti69      1.0  0.12393  0.10994  0.95402  1.0000
  Ti  Ti70      1.0  0.59102  0.43089  0.54549  1.0000
  Ti  Ti71      1.0  0.62197  0.03823  0.47730  1.0000
  Ti  Ti72      1.0  0.11723  0.95192  0.17330  1.0000
  Ti  Ti73      1.0  0.12223  0.78001  0.24362  1.0000
  Ti  Ti74      1.0  0.70788  0.76157  0.11515  1.0000
  Ti  Ti75      1.0  0.39360  0.98849  0.00103  1.0000
  Ti  Ti76      1.0  0.78436  0.29335  0.35516  1.0000
  Ti  Ti77      1.0  0.65025  0.37873  0.10552  1.0000
  Ti  Ti78      1.0  0.76194  0.01385  0.44315  1.0000
  Ti  Ti79      1.0  0.48286  0.42438  0.85509  1.0000
  Ti  Ti80      1.0  0.79446  0.23642  0.60080  1.0000
  Ti  Ti81      1.0  0.66385  0.27031  0.31257  1.0000
  Ti  Ti82      1.0  0.51896  0.52320  0.91880  1.0000
  Ti  Ti83      1.0  0.75686  0.54709  0.57349  1.0000
  Ti  Ti84      1.0  0.86697  0.54723  0.46262  1.0000
  Ti  Ti85      1.0  0.00187  0.32642  0.25407  1.0000
  Ti  Ti86      1.0  0.46976  0.35107  0.14193  1.0000
  Ti  Ti87      1.0  0.94100  0.95297  0.60925  1.0000
  Ti  Ti88      1.0  0.55675  0.90753  0.19696  1.0000
  Ti  Ti89      1.0  0.56435  0.69925  0.15344  1.0000
  Ti  Ti90      1.0  0.84436  0.28145  0.02356  1.0000
  Ti  Ti91      1.0  0.47055  0.55808  0.63239  1.0000
  Ti  Ti92      1.0  0.73873  0.03049  0.70327  1.0000
  Ti  Ti93      1.0  0.77125  0.56453  0.07572  1.0000
  Ti  Ti94      1.0  0.52396  0.74029  0.51089  1.0000
  Ti  Ti95      1.0  0.30732  0.44657  0.24390  1.0000
  Ti  Ti96      1.0  0.03751  0.50404  0.98137  1.0000
  I   I1        1.0  0.06474  0.51853  0.93726  1.0000
  I   I2        1.0  0.37569  0.10546  0.27093  1.0000
  I   I3        1.0  0.55006  0.79353  0.82344  1.0000
  I   I4        1.0  0.19270  0.62618  0.55699  1.0000
  I   I5        1.0  0.38897  0.30131  0.96635  1.0000
  I   I6        1.0  0.47906  0.18460  0.04311  1.0000
  I   I7        1.0  0.47061  0.15066  0.22039  1.0000
  I   I8        1.0  0.46915  0.19732  0.31653  1.0000
  I   I9        1.0  0.25584  0.78048  0.47662  1.0000
  I   I10       1.0  0.74780  0.85559  0.08128  1.0000
  I   I11       1.0  0.12079  0.51553  0.64640  1.0000
  I   I12       1.0  0.97100  0.77916  0.68545  1.0000
  I   I13       1.0  0.20535  0.19826  0.55454  1.0000
  I   I14       1.0  0.11672  0.97097  0.51487  1.0000
  I   I15       1.0  0.65222  0.24089  0.77120  1.0000
  I   I16       1.0  0.67262  0.88165  0.74522  1.0000
  I   I17       1.0  0.51169  0.34848  0.32899  1.0000
  I   I18       1.0  0.09754  0.67912  0.93343  1.0000
  I   I19       1.0  0.50664  0.97742  0.78767  1.0000
  I   I20       1.0  0.13723  0.49974  0.77484  1.0000
  I   I21       1.0  0.19150  0.01803  0.91232  1.0000
  I   I22       1.0  0.60126  0.04200  0.40057  1.0000
  I   I23       1.0  0.64049  0.09322  0.31171  1.0000
  I   I24       1.0  0.54827  0.45440  0.52478  1.0000
  I   I25       1.0  0.73696  0.78241  0.12354  1.0000
  I   I26       1.0  0.43820  0.95495  0.01955  1.0000
  I   I27       1.0  0.07967  0.75680  0.35281  1.0000
  I   I28       1.0  0.66138  0.39261  0.17283  1.0000
  I   I29       1.0  0.75923  0.05098  0.48046  1.0000
  I   I30       1.0  0.74111  0.33189  0.36166  1.0000
  I   I31       1.0  0.76100  0.22697  0.59634  1.0000
  I   I32       1.0  0.70591  0.24649  0.33311  1.0000
  I   I33       1.0  0.46573  0.46221  0.89912  1.0000
  I   I34       1.0  0.74474  0.59139  0.57431  1.0000
  I   I35       1.0  0.90960  0.53770  0.49392  1.0000
  I   I36       1.0  0.58648  0.45056  0.98235  1.0000
  I   I37       1.0  0.98200  0.30010  0.28123  1.0000
  I   I38       1.0  0.97708  0.92621  0.55678  1.0000
  I   I39       1.0  0.03876  0.32316  0.31915  1.0000
  I   I40       1.0  0.53411  0.72310  0.09904  1.0000
  I   I41       1.0  0.84486  0.28965  0.94567  1.0000
  I   I42       1.0  0.19447  0.05098  0.11014  1.0000
  I   I43       1.0  0.62786  0.18652  0.49460  1.0000
  I   I44       1.0  0.75226  0.53806  0.07310  1.0000
  I   I45       1.0  0.46089  0.60199  0.62158  1.0000
  I   I46       1.0  0.33425  0.44113  0.09153  1.0000
  I   I47       1.0  0.06294  0.45993  0.13937  1.0000
  I   I48       1.0  0.53449  0.71261  0.44191  1.0000
  I   I49       1.0  0.61200  0.76771  0.78348  1.0000
  I   I50       1.0  0.30046  0.14147  0.28143  1.0000
  I   I51       1.0  0.32424  0.08880  0.37069  1.0000
  I   I52       1.0  0.08109  0.00218  0.95451  1.0000
  I   I53       1.0  0.14237  0.66632  0.64374  1.0000
  I   I54       1.0  0.50215  0.21145  0.95409  1.0000
  I   I55       1.0  0.81456  0.98320  0.13552  1.0000
  I   I56       1.0  0.39844  0.23953  0.23672  1.0000
  I   I57       1.0  0.34373  0.73076  0.52386  1.0000
  I   I58       1.0  0.72876  0.88072  0.97246  1.0000
  I   I59       1.0  0.67276  0.93728  0.94722  1.0000
  I   I60       1.0  0.11751  0.59995  0.42184  1.0000
  I   I61       1.0  0.24879  0.22082  0.48528  1.0000
  I   I62       1.0  0.22160  0.25920  0.57292  1.0000
  I   I63       1.0  0.05393  0.01334  0.48937  1.0000
  I   I64       1.0  0.61704  0.94297  0.69794  1.0000
  I   I65       1.0  0.11936  0.34808  0.67353  1.0000
  I   I66       1.0  0.44632  0.38766  0.29896  1.0000
  I   I67       1.0  0.56431  0.82100  0.41860  1.0000
  I   I68       1.0  0.45729  0.95551  0.81331  1.0000
  I   I69       1.0  0.07734  0.13287  0.95439  1.0000
  I   I70       1.0  0.64026  0.39400  0.57091  1.0000
  I   I71       1.0  0.62474  0.07599  0.43930  1.0000
  I   I72       1.0  0.10976  0.92510  0.23171  1.0000
  I   I73       1.0  0.15818  0.74555  0.27947  1.0000
  I   I74       1.0  0.40753  0.95854  0.93210  1.0000
  I   I75       1.0  0.39221  0.02251  0.05262  1.0000
  I   I76       1.0  0.56149  0.38507  0.02736  1.0000
  I   I77       1.0  0.66928  0.39547  0.04997  1.0000
  I   I78       1.0  0.72941  0.03874  0.39540  1.0000
  I   I79       1.0  0.41360  0.86440  0.78984  1.0000
  I   I80       1.0  0.81225  0.26745  0.70991  1.0000
  I   I81       1.0  0.68261  0.23889  0.23717  1.0000
  I   I82       1.0  0.52314  0.50445  0.00014  1.0000
  I   I83       1.0  0.80312  0.53871  0.60339  1.0000
  I   I84       1.0  0.94436  0.56569  0.54483  1.0000
  I   I85       1.0  0.02286  0.35921  0.23335  1.0000
  I   I86       1.0  0.48060  0.31173  0.09887  1.0000
  I   I87       1.0  0.99082  0.97354  0.61930  1.0000
  I   I88       1.0  0.17995  0.09091  0.21287  1.0000
  I   I89       1.0  0.61472  0.66726  0.15852  1.0000
  I   I90       1.0  0.80089  0.30198  0.06506  1.0000
  I   I91       1.0  0.46774  0.56113  0.71627  1.0000
  I   I92       1.0  0.71267  0.07518  0.67451  1.0000
  I   I93       1.0  0.82043  0.52578  0.07768  1.0000
  I   I94       1.0  0.50659  0.76019  0.58294  1.0000
  I   I95       1.0  0.34402  0.45687  0.20738  1.0000
  I   I96       1.0  0.99947  0.52880  0.94118  1.0000
  I   I97       1.0  0.01506  0.64657  0.23329  1.0000
  I   I98       1.0  0.54027  0.84185  0.77370  1.0000
  I   I99       1.0  0.32357  0.14877  0.38716  1.0000
  I   I100      1.0  0.01187  0.04665  0.97215  1.0000
  I   I101      1.0  0.95806  0.01767  0.01234  1.0000
  I   I102      1.0  0.98562  0.81193  0.58193  1.0000
  I   I103      1.0  0.80501  0.95311  0.03155  1.0000
  I   I104      1.0  0.89532  0.98169  0.17164  1.0000
  I   I105      1.0  0.30050  0.71760  0.46893  1.0000
  I   I106      1.0  0.02338  0.63107  0.42947  1.0000
  I   I107      1.0  0.69340  0.93400  0.10623  1.0000
  I   I108      1.0  0.06464  0.64937  0.48802  1.0000
  I   I109      1.0  0.60247  0.33501  0.88675  1.0000
  I   I110      1.0  0.16153  0.23968  0.64510  1.0000
  I   I111      1.0  0.06195  0.09318  0.44310  1.0000
  I   I112      1.0  0.15611  0.60338  0.02002  1.0000
  I   I113      1.0  0.12147  0.36901  0.80171  1.0000
  I   I114      1.0  0.33239  0.14338  0.67167  1.0000
  I   I115      1.0  0.63534  0.81208  0.32293  1.0000
  I   I116      1.0  0.55692  0.83743  0.31925  1.0000
  I   I117      1.0  0.07727  0.38981  0.94666  1.0000
  I   I118      1.0  0.60170  0.39041  0.51254  1.0000
  I   I119      1.0  0.60248  0.44731  0.70905  1.0000
  I   I120      1.0  0.15143  0.96090  0.19114  1.0000
  I   I121      1.0  0.07551  0.77910  0.23770  1.0000
  I   I122      1.0  0.65344  0.74681  0.18455  1.0000
  I   I123      1.0  0.49453  0.90491  0.95234  1.0000
  I   I124      1.0  0.80777  0.29367  0.41749  1.0000
  I   I125      1.0  0.61995  0.31809  0.01156  1.0000
  I   I126      1.0  0.76010  0.97337  0.40579  1.0000
  I   I127      1.0  0.36747  0.92224  0.69542  1.0000
  I   I128      1.0  0.81904  0.20493  0.54366  1.0000
  I   I129      1.0  0.63794  0.29231  0.37601  1.0000
  I   I130      1.0  0.84388  0.53479  0.51416  1.0000
  I   I131      1.0  0.54363  0.51391  0.84525  1.0000
  I   I132      1.0  0.72973  0.55902  0.50696  1.0000
  I   I133      1.0  0.02617  0.93271  0.51737  1.0000
  I   I134      1.0  0.49559  0.37309  0.98623  1.0000
  I   I135      1.0  0.50525  0.35943  0.10804  1.0000
  I   I136      1.0  0.88617  0.26088  0.07515  1.0000
  I   I137      1.0  0.56952  0.86443  0.18860  1.0000
  I   I138      1.0  0.56387  0.65634  0.12634  1.0000
  I   I139      1.0  0.39995  0.54588  0.55346  1.0000
  I   I140      1.0  0.73437  0.03527  0.78371  1.0000
  I   I141      1.0  0.77731  0.57376  0.99722  1.0000
  I   I142      1.0  0.47563  0.75355  0.48716  1.0000
  I   I143      1.0  0.28670  0.49770  0.08709  1.0000
  I   I144      1.0  0.08610  0.48726  0.05991  1.0000
  I   I145      1.0  0.55626  0.87068  0.60448  1.0000
  I   I146      1.0  0.38177  0.08581  0.37147  1.0000
  I   I147      1.0  0.97494  0.62523  0.32889  1.0000
  I   I148      1.0  0.01712  0.94497  0.99106  1.0000
  I   I149      1.0  0.03817  0.75947  0.69874  1.0000
  I   I150      1.0  0.45366  0.25573  0.02032  1.0000
  I   I151      1.0  0.86485  0.91964  0.10435  1.0000
  I   I152      1.0  0.45467  0.23352  0.23410  1.0000
  I   I153      1.0  0.34597  0.72244  0.40148  1.0000
  I   I154      1.0  0.64476  0.16180  0.61923  1.0000
  I   I155      1.0  0.17187  0.51938  0.67287  1.0000
  I   I156      1.0  0.07634  0.57480  0.38117  1.0000
  I   I157      1.0  0.61290  0.28243  0.66726  1.0000
  I   I158      1.0  0.11149  0.97113  0.38926  1.0000
  I   I159      1.0  0.60352  0.27333  0.86297  1.0000
  I   I160      1.0  0.10923  0.60864  0.93954  1.0000
  I   I161      1.0  0.35491  0.19436  0.63352  1.0000
  I   I162      1.0  0.08811  0.63753  0.84333  1.0000
  I   I163      1.0  0.59935  0.76686  0.27768  1.0000
  I   I164      1.0  0.07377  0.33080  0.90143  1.0000
  I   I165      1.0  0.19511  0.06944  0.92420  1.0000
  I   I166      1.0  0.57648  0.41628  0.63043  1.0000
  I   I167      1.0  0.65930  0.02647  0.35320  1.0000
  I   I168      1.0  0.93692  0.96434  0.28697  1.0000
  I   I169      1.0  0.66424  0.79373  0.12770  1.0000
  I   I170      1.0  0.69880  0.69139  0.18179  1.0000
  I   I171      1.0  0.05237  0.84012  0.26633  1.0000
  I   I172      1.0  0.77216  0.26086  0.39087  1.0000
  I   I173      1.0  0.81149  0.98491  0.45275  1.0000
  I   I174      1.0  0.84577  0.23128  0.21372  1.0000
  I   I175      1.0  0.85398  0.23471  0.60581  1.0000
  I   I176      1.0  0.63857  0.23124  0.15501  1.0000
  I   I177      1.0  0.52614  0.40526  0.84757  1.0000
  I   I178      1.0  0.48184  0.52699  0.88370  1.0000
  I   I179      1.0  0.78166  0.50618  0.51417  1.0000
  I   I180      1.0  0.88320  0.51509  0.40346  1.0000
  I   I181      1.0  0.99178  0.32145  0.17064  1.0000
  I   I182      1.0  0.50441  0.33549  0.20881  1.0000
  I   I183      1.0  0.94793  0.91491  0.64992  1.0000
  I   I184      1.0  0.53304  0.92763  0.26344  1.0000
  I   I185      1.0  0.60400  0.62269  0.04012  1.0000
  I   I186      1.0  0.86267  0.31475  0.01757  1.0000
  I   I187      1.0  0.73029  0.00148  0.65669  1.0000
  I   I188      1.0  0.85344  0.53064  0.19801  1.0000
  I   I189      1.0  0.43682  0.54497  0.64232  1.0000
  I   I190      1.0  0.30045  0.46107  0.32099  1.0000
  I   I191      1.0  0.05590  0.20105  0.44963  1.0000
  I   I192      1.0  0.51815  0.70174  0.61227  1.0000
  I   I193      1.0  0.51340  0.84106  0.63372  1.0000
  I   I194      1.0  0.01174  0.18509  0.40791  1.0000
  I   I195      1.0  0.97434  0.61071  0.19925  1.0000
  I   I196      1.0  0.05906  0.03308  0.07622  1.0000
  I   I197      1.0  0.74935  0.13421  0.41918  1.0000
  I   I198      1.0  0.41656  0.22606  0.01133  1.0000
  I   I199      1.0  0.85037  0.97429  0.99325  1.0000
  I   I200      1.0  0.41444  0.27269  0.34665  1.0000
  I   I201      1.0  0.24093  0.84947  0.39771  1.0000
  I   I202      1.0  0.68600  0.88857  0.07355  1.0000
  I   I203      1.0  0.12721  0.05963  0.93799  1.0000
  I   I204      1.0  0.07495  0.68803  0.42852  1.0000
  I   I205      1.0  0.27188  0.16852  0.55979  1.0000
  I   I206      1.0  0.08525  0.04113  0.52320  1.0000
  I   I207      1.0  0.58434  0.25645  0.72799  1.0000
  I   I208      1.0  0.60581  0.88816  0.70432  1.0000
  I   I209      1.0  0.35203  0.14681  0.55365  1.0000
  I   I210      1.0  0.12959  0.66065  0.82013  1.0000
  I   I211      1.0  0.61742  0.76891  0.39397  1.0000
  I   I212      1.0  0.44075  0.01011  0.73066  1.0000
  I   I213      1.0  0.13144  0.09894  0.03202  1.0000
  I   I214      1.0  0.58924  0.47060  0.57730  1.0000
  I   I215      1.0  0.61081  0.05897  0.27465  1.0000
  I   I216      1.0  0.94102  0.90667  0.31506  1.0000
  I   I217      1.0  0.67971  0.73781  0.06999  1.0000
  I   I218      1.0  0.37130  0.97456  0.05357  1.0000
  I   I219      1.0  0.14108  0.77916  0.16740  1.0000
  I   I220      1.0  0.57785  0.33853  0.11130  1.0000
  I   I221      1.0  0.80731  0.91279  0.43391  1.0000
  I   I222      1.0  0.86291  0.28058  0.24080  1.0000
  I   I223      1.0  0.76122  0.28173  0.64568  1.0000
  I   I224      1.0  0.66585  0.19539  0.28114  1.0000
  I   I225      1.0  0.35909  0.86337  0.70261  1.0000
  I   I226      1.0  0.53333  0.47254  0.91233  1.0000
  I   I227      1.0  0.78577  0.46843  0.64494  1.0000
  I   I228      1.0  0.89243  0.61998  0.50369  1.0000
  I   I229      1.0  0.96379  0.35742  0.29337  1.0000
  I   I230      1.0  0.52845  0.29973  0.02506  1.0000
  I   I231      1.0  0.90261  0.96683  0.57567  1.0000
  I   I232      1.0  0.24839  0.05540  0.15527  1.0000
  I   I233      1.0  0.65702  0.61103  0.09535  1.0000
  I   I234      1.0  0.85284  0.23816  0.01825  1.0000
  I   I235      1.0  0.68636  0.12572  0.44933  1.0000
  I   I236      1.0  0.73948  0.59676  0.12535  1.0000
  I   I237      1.0  0.45714  0.51289  0.50330  1.0000
  I   I238      1.0  0.26061  0.46453  0.11176  1.0000
  I   I239      1.0  0.02329  0.53915  0.03670  1.0000
  I   I240      1.0  0.51691  0.77703  0.46503  1.0000
  I   I241      1.0  0.55336  0.79535  0.68880  1.0000
  I   I242      1.0  0.39396  0.13297  0.39366  1.0000
  I   I243      1.0  0.94426  0.68372  0.25538  1.0000
  I   I244      1.0  0.04829  0.97508  0.97272  1.0000
  I   I245      1.0  0.17408  0.58904  0.60910  1.0000
  I   I246      1.0  0.48113  0.17479  0.91741  1.0000
  I   I247      1.0  0.86626  0.98421  0.07468  1.0000
  I   I248      1.0  0.49026  0.19122  0.14247  1.0000
  I   I249      1.0  0.31498  0.78663  0.42747  1.0000
  I   I250      1.0  0.69766  0.96226  0.00650  1.0000
  I   I251      1.0  0.10184  0.57037  0.73108  1.0000
  I   I252      1.0  0.08116  0.58211  0.49106  1.0000
  I   I253      1.0  0.22388  0.21844  0.64695  1.0000
  I   I254      1.0  0.11273  0.03009  0.42958  1.0000
  I   I255      1.0  0.56607  0.31768  0.76970  1.0000
  I   I256      1.0  0.18836  0.33180  0.72971  1.0000
  I   I257      1.0  0.40392  0.13431  0.66119  1.0000
  I   I258      1.0  0.15886  0.64197  0.93107  1.0000
  I   I259      1.0  0.55938  0.76593  0.36368  1.0000
  I   I260      1.0  0.03060  0.36190  0.00292  1.0000
  I   I261      1.0  0.17524  0.06153  0.80024  1.0000
  I   I262      1.0  0.61936  0.38478  0.71470  1.0000
  I   I263      1.0  0.61500  0.00140  0.50170  1.0000
  I   I264      1.0  0.93765  0.95569  0.41372  1.0000
  I   I265      1.0  0.71410  0.75330  0.20580  1.0000
  I   I266      1.0  0.44093  0.89446  0.90129  1.0000
  I   I267      1.0  0.12221  0.82177  0.25522  1.0000
  I   I268      1.0  0.63015  0.36943  0.02897  1.0000
  I   I269      1.0  0.74066  0.00842  0.51075  1.0000
  I   I270      1.0  0.80001  0.31729  0.29919  1.0000
  I   I271      1.0  0.80465  0.30940  0.60442  1.0000
  I   I272      1.0  0.65640  0.31018  0.27778  1.0000
  I   I273      1.0  0.34712  0.90879  0.80607  1.0000
  I   I274      1.0  0.50797  0.56140  0.94836  1.0000
  I   I275      1.0  0.80565  0.43642  0.55058  1.0000
  I   I276      1.0  0.83688  0.57247  0.39843  1.0000
  I   I277      1.0  0.97261  0.37966  0.37916  1.0000
  I   I278      1.0  0.44598  0.37132  0.07227  1.0000
  I   I279      1.0  0.99394  0.00401  0.52121  1.0000
  I   I280      1.0  0.59622  0.91259  0.18625  1.0000
  I   I281      1.0  0.55523  0.68472  0.22809  1.0000
  I   I282      1.0  0.88748  0.31504  0.11574  1.0000
  I   I283      1.0  0.70100  0.16046  0.52703  1.0000
  I   I284      1.0  0.77803  0.55409  0.22027  1.0000
  I   I285      1.0  0.42467  0.58451  0.48769  1.0000
  I   I286      1.0  0.34731  0.40963  0.24805  1.0000
  I   I287      1.0  0.11392  0.41592  0.07264  1.0000
  I   I288      1.0  0.48948  0.69275  0.52227  1.0000
  I   I289      1.0  0.59567  0.82914  0.68887  1.0000
  I   I290      1.0  0.03158  0.23674  0.32379  1.0000
  I   I291      1.0  0.44422  0.07986  0.29543  1.0000
  I   I292      1.0  0.99977  0.99043  0.91858  1.0000
  I   I293      1.0  0.20125  0.61900  0.70533  1.0000
  I   I294      1.0  0.45031  0.26787  0.90192  1.0000
  I   I295      1.0  0.83014  0.04106  0.14352  1.0000
  I   I296      1.0  0.52397  0.18283  0.23618  1.0000
  I   I297      1.0  0.21470  0.80554  0.39168  1.0000
  I   I298      1.0  0.64026  0.12235  0.51570  1.0000
  I   I299      1.0  0.76465  0.90193  0.05416  1.0000
  I   I300      1.0  0.06271  0.64223  0.33225  1.0000
  I   I301      1.0  0.61739  0.31051  0.77832  1.0000
  I   I302      1.0  0.16165  0.26887  0.52992  1.0000
  I   I303      1.0  0.02146  0.07409  0.49608  1.0000
  I   I304      1.0  0.09544  0.65104  0.05148  1.0000
  I   I305      1.0  0.60644  0.91773  0.82200  1.0000
  I   I306      1.0  0.44183  0.34172  0.19226  1.0000
  I   I307      1.0  0.59034  0.86640  0.39041  1.0000
  I   I308      1.0  0.45209  0.01838  0.86646  1.0000
  I   I309      1.0  0.12359  0.14899  0.96237  1.0000
  I   I310      1.0  0.65944  0.40624  0.67964  1.0000
  I   I311      1.0  0.61392  0.05282  0.55752  1.0000
  I   I312      1.0  0.11999  0.94100  0.09548  1.0000
  I   I313      1.0  0.11213  0.79114  0.33365  1.0000
  I   I314      1.0  0.73821  0.70876  0.11277  1.0000
  I   I315      1.0  0.35278  0.01811  0.96349  1.0000
  I   I316      1.0  0.80526  0.29959  0.18936  1.0000
  I   I317      1.0  0.61087  0.37964  0.13625  1.0000
  I   I318      1.0  0.81404  0.94602  0.54762  1.0000
  I   I319      1.0  0.46125  0.40034  0.86121  1.0000
  I   I320      1.0  0.81249  0.21805  0.66729  1.0000
  I   I321      1.0  0.59663  0.23808  0.26398  1.0000
  I   I322      1.0  0.58624  0.50855  0.93831  1.0000
  I   I323      1.0  0.73711  0.51991  0.61216  1.0000
  I   I324      1.0  0.89459  0.57935  0.61593  1.0000
  I   I325      1.0  0.04517  0.28399  0.23527  1.0000
  I   I326      1.0  0.45653  0.39619  0.18970  1.0000
  I   I327      1.0  0.94177  0.98875  0.51998  1.0000
  I   I328      1.0  0.19539  0.11524  0.08812  1.0000
  I   I329      1.0  0.57592  0.72869  0.18226  1.0000
  I   I330      1.0  0.92724  0.28410  0.97972  1.0000
  I   I331      1.0  0.47977  0.55271  0.55007  1.0000
  I   I332      1.0  0.76723  0.12572  0.51637  1.0000
  I   I333      1.0  0.80877  0.57963  0.12028  1.0000
  I   I334      1.0  0.56476  0.72965  0.53012  1.0000
  I   I335      1.0  0.26790  0.48169  0.20845  1.0000
  I   I336      1.0  0.02272  0.48512  0.04582  1.0000
  I   I337      1.0  0.57500  0.80449  0.58184  1.0000
  I   I338      1.0  0.07420  0.17237  0.34632  1.0000
  I   I339      1.0  0.40946  0.14504  0.28391  1.0000
  I   I340      1.0  0.01834  0.00752  0.06938  1.0000
  I   I341      1.0  0.99556  0.82647  0.70088  1.0000
  I   I342      1.0  0.42137  0.23145  0.90257  1.0000
  I   I343      1.0  0.84165  0.99254  0.24277  1.0000
  I   I344      1.0  0.39867  0.22082  0.37389  1.0000
  I   I345      1.0  0.27319  0.77836  0.34267  1.0000
  I   I346      1.0  0.71010  0.09823  0.54186  1.0000
  I   I347      1.0  0.63615  0.93939  0.05545  1.0000
  I   I348      1.0  0.12457  0.64389  0.36521  1.0000
  I   I349      1.0  0.53951  0.33811  0.87699  1.0000
  I   I350      1.0  0.17414  0.29357  0.64020  1.0000
  I   I351      1.0  0.05875  0.04556  0.37440  1.0000
  I   I352      1.0  0.15840  0.58843  0.86859  1.0000
  I   I353      1.0  0.16545  0.29873  0.77267  1.0000
  I   I354      1.0  0.49595  0.40868  0.25296  1.0000
  I   I355      1.0  0.64064  0.80587  0.45855  1.0000
  I   I356      1.0  0.09274  0.33180  0.03533  1.0000
  I   I357      1.0  0.12903  0.10809  0.86667  1.0000
  I   I358      1.0  0.99966  0.91577  0.34153  1.0000
  I   I359      1.0  0.66840  0.01698  0.50360  1.0000
  I   I360      1.0  0.08546  0.99322  0.20313  1.0000
  I   I361      1.0  0.01868  0.82042  0.33596  1.0000
  I   I362      1.0  0.71503  0.76391  0.02815  1.0000
  I   I363      1.0  0.44810  0.89101  0.02300  1.0000
  I   I364      1.0  0.78599  0.26859  0.28380  1.0000
  I   I365      1.0  0.68685  0.33909  0.11357  1.0000
  I   I366      1.0  0.86293  0.91613  0.45430  1.0000
  I   I367      1.0  0.46571  0.45073  0.78404  1.0000
  I   I368      1.0  0.79488  0.26714  0.54262  1.0000
  I   I369      1.0  0.62380  0.28057  0.25994  1.0000
  I   I370      1.0  0.60162  0.45502  0.85333  1.0000
  I   I371      1.0  0.72824  0.47538  0.55513  1.0000
  I   I372      1.0  0.85398  0.58499  0.50858  1.0000
  I   I373      1.0  0.98596  0.40852  0.28116  1.0000
  I   I374      1.0  0.47260  0.33153  0.97960  1.0000
  I   I375      1.0  0.93705  0.97374  0.67800  1.0000
  I   I376      1.0  0.53538  0.92962  0.13459  1.0000
  I   I377      1.0  0.62151  0.60497  0.17979  1.0000
  I   I378      1.0  0.94732  0.25808  0.09788  1.0000
  I   I379      1.0  0.51495  0.54347  0.65754  1.0000
  I   I380      1.0  0.78052  0.01993  0.69723  1.0000
  I   I381      1.0  0.81889  0.50433  0.21774  1.0000
  I   I382      1.0  0.45161  0.75235  0.61178  1.0000
  I   I383      1.0  0.30420  0.41845  0.17774  1.0000
  I   I384      1.0  0.07116  0.45500  0.96387  1.0000
