data_image0
_chemical_formula_structural       Ti96I384
_chemical_formula_sum              "Ti96 I384"
_cell_length_a       39.6725
_cell_length_b       38.9516
_cell_length_c       22.2262
_cell_angle_alpha    88.7757
_cell_angle_beta     88.7757
_cell_angle_gamma    62.1586

_space_group_name_H-M_alt    "P 1"
_space_group_IT_number       1

loop_
  _space_group_symop_operation_xyz
  'x, y, z'

loop_
  _atom_site_type_symbol
  _atom_site_label
  _atom_site_symmetry_multiplicity
  _atom_site_fract_x
  _atom_site_fract_y
  _atom_site_fract_z
  _atom_site_occupancy
  Ti  Ti1       1.0  0.17453  0.06688  0.14844  1.0000
  Ti  Ti2       1.0  0.16671  0.07086  0.47949  1.0000
  Ti  Ti3       1.0  0.17772  0.07975  0.81094  1.0000
  Ti  Ti4       1.0  0.15342  0.32971  0.33748  1.0000
  Ti  Ti5       1.0  0.15133  0.32569  0.67826  1.0000
  Ti  Ti6       1.0  0.14448  0.32625  0.00221  1.0000
  Ti  Ti7       1.0  0.13957  0.59034  0.38672  1.0000
  Ti  Ti8       1.0  0.14733  0.58924  0.70028  1.0000
  Ti  Ti9       1.0  0.16632  0.57371  0.03768  1.0000
  Ti  Ti10      1.0  0.13567  0.88169  0.23281  1.0000
  Ti  Ti11      1.0  0.13728  0.85418  0.56790  1.0000
  Ti  Ti12      1.0  0.12000  0.87517  0.90775  1.0000
  Ti  Ti13      1.0  0.44549  0.09146  0.27353  1.0000
  Ti  Ti14      1.0  0.43139  0.08530  0.59905  1.0000
  Ti  Ti15      1.0  0.44076  0.06310  0.94144  1.0000
  Ti  Ti16      1.0  0.41991  0.35117  0.31987  1.0000
  Ti  Ti17      1.0  0.42034  0.33373  0.66617  1.0000
  Ti  Ti18      1.0  0.41383  0.33621  0.00586  1.0000
  Ti  Ti19      1.0  0.37872  0.63498  0.25925  1.0000
  Ti  Ti20      1.0  0.34707  0.64110  0.62388  1.0000
  Ti  Ti21      1.0  0.36132  0.62861  0.95286  1.0000
  Ti  Ti22      1.0  0.45448  0.82398  0.14728  1.0000
  Ti  Ti23      1.0  0.45220  0.81638  0.47865  1.0000
  Ti  Ti24      1.0  0.43547  0.83061  0.81806  1.0000
  Ti  Ti25      1.0  0.67091  0.09884  0.29404  1.0000
  Ti  Ti26      1.0  0.65308  0.10393  0.63154  1.0000
  Ti  Ti27      1.0  0.67327  0.09758  0.96037  1.0000
  Ti  Ti28      1.0  0.60231  0.40763  0.27911  1.0000
  Ti  Ti29      1.0  0.60131  0.41182  0.61331  1.0000
  Ti  Ti30      1.0  0.60269  0.39700  0.96214  1.0000
  Ti  Ti31      1.0  0.68005  0.58962  0.11808  1.0000
  Ti  Ti32      1.0  0.67858  0.57374  0.46402  1.0000
  Ti  Ti33      1.0  0.67408  0.59174  0.78974  1.0000
  Ti  Ti34      1.0  0.68222  0.80046  0.23005  1.0000
  Ti  Ti35      1.0  0.68116  0.80543  0.54674  1.0000
  Ti  Ti36      1.0  0.68071  0.80653  0.87896  1.0000
  Ti  Ti37      1.0  0.84812  0.12377  0.20654  1.0000
  Ti  Ti38      1.0  0.86899  0.12452  0.54545  1.0000
  Ti  Ti39      1.0  0.85907  0.11959  0.86563  1.0000
  Ti  Ti40      1.0  0.91090  0.33902  0.17577  1.0000
  Ti  Ti41      1.0  0.90610  0.31731  0.52364  1.0000
  Ti  Ti42      1.0  0.89956  0.33085  0.83936  1.0000
  Ti  Ti43      1.0  0.93238  0.59081  0.25495  1.0000
  Ti  Ti44      1.0  0.91381  0.58411  0.59067  1.0000
  Ti  Ti45      1.0  0.92242  0.57999  0.92156  1.0000
  Ti  Ti46      1.0  0.91030  0.83033  0.31881  1.0000
  Ti  Ti47      1.0  0.90278  0.84569  0.65209  1.0000
  Ti  Ti48      1.0  0.90820  0.84910  0.99189  1.0000
  Ti  Ti49      1.0  0.11832  0.13412  0.97861  1.0000
  Ti  Ti50      1.0  0.10453  0.12699  0.30745  1.0000
  Ti  Ti51      1.0  0.10880  0.12730  0.64228  1.0000
  Ti  Ti52      1.0  0.08341  0.38853  0.17957  1.0000
  Ti  Ti53      1.0  0.09412  0.39742  0.50931  1.0000
  Ti  Ti54      1.0  0.08845  0.39633  0.82542  1.0000
  Ti  Ti55      1.0  0.10126  0.65375  0.20020  1.0000
  Ti  Ti56      1.0  0.09125  0.65715  0.54244  1.0000
  Ti  Ti57      1.0  0.09737  0.65133  0.88136  1.0000
  Ti  Ti58      1.0  0.05692  0.94393  0.06307  1.0000
  Ti  Ti59      1.0  0.07534  0.92124  0.41019  1.0000
  Ti  Ti60      1.0  0.06161  0.91814  0.72930  1.0000
  Ti  Ti61      1.0  0.38948  0.13572  0.10672  1.0000
  Ti  Ti62      1.0  0.37443  0.15009  0.43379  1.0000
  Ti  Ti63      1.0  0.38226  0.13363  0.77953  1.0000
  Ti  Ti64      1.0  0.34676  0.39173  0.16852  1.0000
  Ti  Ti65      1.0  0.34015  0.38181  0.49504  1.0000
  Ti  Ti66      1.0  0.34187  0.39008  0.83065  1.0000
  Ti  Ti67      1.0  0.29598  0.68805  0.11701  1.0000
  Ti  Ti68      1.0  0.28555  0.69635  0.44916  1.0000
  Ti  Ti69      1.0  0.28895  0.68374  0.77914  1.0000
  Ti  Ti70      1.0  0.38074  0.89819  0.98393  1.0000
  Ti  Ti71      1.0  0.39937  0.88312  0.31070  1.0000
  Ti  Ti72      1.0  0.37875  0.89230  0.63331  1.0000
  Ti  Ti73      1.0  0.61997  0.15357  0.13057  1.0000
  Ti  Ti74      1.0  0.60254  0.15638  0.44924  1.0000
  Ti  Ti75      1.0  0.61015  0.16847  0.81318  1.0000
  Ti  Ti76      1.0  0.53221  0.45699  0.12102  1.0000
  Ti  Ti77      1.0  0.54062  0.47123  0.44073  1.0000
  Ti  Ti78      1.0  0.54344  0.44617  0.77928  1.0000
  Ti  Ti79      1.0  0.61222  0.65339  0.95063  1.0000
  Ti  Ti80      1.0  0.61557  0.63330  0.30007  1.0000
  Ti  Ti81      1.0  0.61525  0.63806  0.62325  1.0000
  Ti  Ti82      1.0  0.63425  0.86759  0.05220  1.0000
  Ti  Ti83      1.0  0.62223  0.87356  0.38649  1.0000
  Ti  Ti84      1.0  0.62868  0.88052  0.71333  1.0000
  Ti  Ti85      1.0  0.80879  0.18729  0.03704  1.0000
  Ti  Ti86      1.0  0.81085  0.18383  0.36938  1.0000
  Ti  Ti87      1.0  0.80631  0.20220  0.70011  1.0000
  Ti  Ti88      1.0  0.85960  0.40452  0.00160  1.0000
  Ti  Ti89      1.0  0.85529  0.39550  0.33218  1.0000
  Ti  Ti90      1.0  0.84162  0.39151  0.67290  1.0000
  Ti  Ti91      1.0  0.86545  0.64344  0.09126  1.0000
  Ti  Ti92      1.0  0.85777  0.64457  0.42729  1.0000
  Ti  Ti93      1.0  0.85241  0.64094  0.75704  1.0000
  Ti  Ti94      1.0  0.83899  0.90579  0.15590  1.0000
  Ti  Ti95      1.0  0.83906  0.89637  0.48062  1.0000
  Ti  Ti96      1.0  0.84083  0.88578  0.80685  1.0000
  I   I1        1.0  0.08970  0.09314  0.21580  1.0000
  I   I2        1.0  0.09251  0.09825  0.54258  1.0000
  I   I3        1.0  0.10869  0.09911  0.87502  1.0000
  I   I4        1.0  0.08218  0.36248  0.40169  1.0000
  I   I5        1.0  0.06752  0.37643  0.72070  1.0000
  I   I6        1.0  0.07680  0.34073  0.08111  1.0000
  I   I7        1.0  0.06931  0.64405  0.42375  1.0000
  I   I8        1.0  0.06520  0.63303  0.79077  1.0000
  I   I9        1.0  0.08832  0.61908  0.10000  1.0000
  I   I10       1.0  0.06833  0.88660  0.30029  1.0000
  I   I11       1.0  0.05738  0.88309  0.62837  1.0000
  I   I12       1.0  0.04400  0.91033  0.97190  1.0000
  I   I13       1.0  0.37261  0.11244  0.32795  1.0000
  I   I14       1.0  0.36409  0.11349  0.66050  1.0000
  I   I15       1.0  0.37054  0.10399  0.01035  1.0000
  I   I16       1.0  0.35360  0.33308  0.39680  1.0000
  I   I17       1.0  0.35808  0.33622  0.73544  1.0000
  I   I18       1.0  0.34510  0.34767  0.07359  1.0000
  I   I19       1.0  0.30510  0.65805  0.34561  1.0000
  I   I20       1.0  0.27122  0.66024  0.67551  1.0000
  I   I21       1.0  0.28587  0.64967  0.01465  1.0000
  I   I22       1.0  0.38817  0.84767  0.21600  1.0000
  I   I23       1.0  0.36683  0.86024  0.53803  1.0000
  I   I24       1.0  0.36197  0.86078  0.89471  1.0000
  I   I25       1.0  0.59137  0.13149  0.34518  1.0000
  I   I26       1.0  0.59050  0.15515  0.68903  1.0000
  I   I27       1.0  0.60320  0.12916  0.02145  1.0000
  I   I28       1.0  0.52872  0.43743  0.33479  1.0000
  I   I29       1.0  0.52571  0.43763  0.65409  1.0000
  I   I30       1.0  0.53420  0.41656  0.02353  1.0000
  I   I31       1.0  0.60696  0.60469  0.19080  1.0000
  I   I32       1.0  0.60531  0.60611  0.52485  1.0000
  I   I33       1.0  0.60083  0.61359  0.85608  1.0000
  I   I34       1.0  0.60666  0.83417  0.29877  1.0000
  I   I35       1.0  0.60798  0.85143  0.62152  1.0000
  I   I36       1.0  0.60909  0.85148  0.94234  1.0000
  I   I37       1.0  0.77623  0.17299  0.26496  1.0000
  I   I38       1.0  0.79354  0.16393  0.60061  1.0000
  I   I39       1.0  0.78969  0.15093  0.94444  1.0000
  I   I40       1.0  0.82898  0.38803  0.22276  1.0000
  I   I41       1.0  0.82742  0.36423  0.57406  1.0000
  I   I42       1.0  0.83320  0.38141  0.90964  1.0000
  I   I43       1.0  0.85717  0.60570  0.32103  1.0000
  I   I44       1.0  0.83556  0.61020  0.65951  1.0000
  I   I45       1.0  0.85123  0.60590  0.98805  1.0000
  I   I46       1.0  0.84069  0.84742  0.38530  1.0000
  I   I47       1.0  0.82872  0.85098  0.70466  1.0000
  I   I48       1.0  0.83057  0.86798  0.05770  1.0000
  I   I49       1.0  0.15217  0.14548  0.08579  1.0000
  I   I50       1.0  0.13314  0.14374  0.42018  1.0000
  I   I51       1.0  0.12161  0.15642  0.75025  1.0000
  I   I52       1.0  0.10569  0.41914  0.26667  1.0000
  I   I53       1.0  0.13344  0.39791  0.60526  1.0000
  I   I54       1.0  0.11217  0.40586  0.95055  1.0000
  I   I55       1.0  0.13226  0.65920  0.30611  1.0000
  I   I56       1.0  0.11595  0.66899  0.65101  1.0000
  I   I57       1.0  0.14112  0.65354  0.97970  1.0000
  I   I58       1.0  0.07770  0.96379  0.16780  1.0000
  I   I59       1.0  0.10567  0.93095  0.51951  1.0000
  I   I60       1.0  0.08763  0.93903  0.83012  1.0000
  I   I61       1.0  0.41055  0.16110  0.20284  1.0000
  I   I62       1.0  0.39123  0.16911  0.54398  1.0000
  I   I63       1.0  0.41903  0.13947  0.87568  1.0000
  I   I64       1.0  0.36655  0.42176  0.26292  1.0000
  I   I65       1.0  0.35937  0.40511  0.59859  1.0000
  I   I66       1.0  0.36081  0.41583  0.93571  1.0000
  I   I67       1.0  0.32742  0.71183  0.20082  1.0000
  I   I68       1.0  0.30582  0.71366  0.55574  1.0000
  I   I69       1.0  0.31981  0.70450  0.87793  1.0000
  I   I70       1.0  0.42223  0.90695  0.07311  1.0000
  I   I71       1.0  0.43423  0.89048  0.41349  1.0000
  I   I72       1.0  0.40411  0.90206  0.74800  1.0000
  I   I73       1.0  0.63728  0.17128  0.24451  1.0000
  I   I74       1.0  0.63239  0.17399  0.55612  1.0000
  I   I75       1.0  0.65264  0.17094  0.90764  1.0000
  I   I76       1.0  0.55503  0.48392  0.22257  1.0000
  I   I77       1.0  0.55271  0.49470  0.54902  1.0000
  I   I78       1.0  0.56288  0.46499  0.88656  1.0000
  I   I79       1.0  0.63683  0.66862  0.05618  1.0000
  I   I80       1.0  0.64660  0.64918  0.40798  1.0000
  I   I81       1.0  0.62829  0.66690  0.73303  1.0000
  I   I82       1.0  0.64841  0.87982  0.17507  1.0000
  I   I83       1.0  0.65739  0.87899  0.48754  1.0000
  I   I84       1.0  0.67637  0.87756  0.81618  1.0000
  I   I85       1.0  0.84065  0.19425  0.14183  1.0000
  I   I86       1.0  0.84758  0.18723  0.46593  1.0000
  I   I87       1.0  0.84553  0.19816  0.79683  1.0000
  I   I88       1.0  0.89954  0.41457  0.10674  1.0000
  I   I89       1.0  0.88510  0.40438  0.43212  1.0000
  I   I90       1.0  0.88208  0.39920  0.76828  1.0000
  I   I91       1.0  0.88170  0.66688  0.20042  1.0000
  I   I92       1.0  0.87858  0.66197  0.53673  1.0000
  I   I93       1.0  0.87796  0.66210  0.86049  1.0000
  I   I94       1.0  0.87169  0.91601  0.25490  1.0000
  I   I95       1.0  0.85472  0.91814  0.58606  1.0000
  I   I96       1.0  0.85900  0.91102  0.92293  1.0000
  I   I97       1.0  0.18876  0.11781  0.92502  1.0000
  I   I98       1.0  0.18882  0.08767  0.25540  1.0000
  I   I99       1.0  0.17749  0.10798  0.57142  1.0000
  I   I100      1.0  0.15340  0.35522  0.11773  1.0000
  I   I101      1.0  0.16310  0.36798  0.43851  1.0000
  I   I102      1.0  0.16506  0.36976  0.76679  1.0000
  I   I103      1.0  0.17677  0.59971  0.15243  1.0000
  I   I104      1.0  0.16354  0.60512  0.48984  1.0000
  I   I105      1.0  0.16490  0.61236  0.80559  1.0000
  I   I106      1.0  0.12845  0.92142  0.99782  1.0000
  I   I107      1.0  0.13378  0.92516  0.33638  1.0000
  I   I108      1.0  0.13686  0.89122  0.67397  1.0000
  I   I109      1.0  0.46185  0.09589  0.03139  1.0000
  I   I110      1.0  0.45177  0.13003  0.37142  1.0000
  I   I111      1.0  0.45344  0.10771  0.70663  1.0000
  I   I112      1.0  0.41464  0.38345  0.09511  1.0000
  I   I113      1.0  0.40591  0.38177  0.43238  1.0000
  I   I114      1.0  0.40786  0.38378  0.76974  1.0000
  I   I115      1.0  0.36494  0.66910  0.04647  1.0000
  I   I116      1.0  0.39467  0.67062  0.34676  1.0000
  I   I117      1.0  0.36149  0.66742  0.72746  1.0000
  I   I118      1.0  0.44721  0.87105  0.90801  1.0000
  I   I119      1.0  0.47904  0.84611  0.24901  1.0000
  I   I120      1.0  0.46008  0.83827  0.59360  1.0000
  I   I121      1.0  0.69431  0.11587  0.07382  1.0000
  I   I122      1.0  0.67933  0.12959  0.40255  1.0000
  I   I123      1.0  0.68156  0.12234  0.74340  1.0000
  I   I124      1.0  0.60473  0.43933  0.05356  1.0000
  I   I125      1.0  0.62128  0.43491  0.37853  1.0000
  I   I126      1.0  0.61823  0.42680  0.72627  1.0000
  I   I127      1.0  0.68307  0.62608  0.88947  1.0000
  I   I128      1.0  0.67954  0.63497  0.21903  1.0000
  I   I129      1.0  0.69217  0.60435  0.57160  1.0000
  I   I130      1.0  0.70144  0.83145  0.97658  1.0000
  I   I131      1.0  0.69757  0.83553  0.33240  1.0000
  I   I132      1.0  0.70542  0.82858  0.65954  1.0000
  I   I133      1.0  0.88299  0.14362  0.95847  1.0000
  I   I134      1.0  0.88152  0.14091  0.30765  1.0000
  I   I135      1.0  0.87992  0.15920  0.64380  1.0000
  I   I136      1.0  0.93280  0.34932  0.94403  1.0000
  I   I137      1.0  0.92974  0.35379  0.28081  1.0000
  I   I138      1.0  0.91666  0.35628  0.61982  1.0000
  I   I139      1.0  0.93172  0.62598  0.01583  1.0000
  I   I140      1.0  0.92999  0.62908  0.35993  1.0000
  I   I141      1.0  0.92015  0.61732  0.70320  1.0000
  I   I142      1.0  0.91752  0.87817  0.09901  1.0000
  I   I143      1.0  0.90745  0.88223  0.41912  1.0000
  I   I144      1.0  0.90510  0.88900  0.74307  1.0000
  I   I145      1.0  0.14698  0.05675  0.03876  1.0000
  I   I146      1.0  0.13739  0.05526  0.37252  1.0000
  I   I147      1.0  0.15076  0.05637  0.71112  1.0000
  I   I148      1.0  0.12643  0.30923  0.24538  1.0000
  I   I149      1.0  0.11877  0.31369  0.57905  1.0000
  I   I150      1.0  0.11794  0.32094  0.88682  1.0000
  I   I151      1.0  0.11518  0.58359  0.26636  1.0000
  I   I152      1.0  0.09738  0.58788  0.61851  1.0000
  I   I153      1.0  0.13891  0.56956  0.93051  1.0000
  I   I154      1.0  0.10284  0.86367  0.13545  1.0000
  I   I155      1.0  0.12561  0.83506  0.45573  1.0000
  I   I156      1.0  0.09916  0.84004  0.80715  1.0000
  I   I157      1.0  0.42367  0.06474  0.16158  1.0000
  I   I158      1.0  0.40713  0.07269  0.49213  1.0000
  I   I159      1.0  0.41643  0.05422  0.82680  1.0000
  I   I160      1.0  0.39304  0.32132  0.23327  1.0000
  I   I161      1.0  0.39699  0.31128  0.56268  1.0000
  I   I162      1.0  0.40002  0.31122  0.90252  1.0000
  I   I163      1.0  0.33845  0.61279  0.17115  1.0000
  I   I164      1.0  0.31653  0.62174  0.51033  1.0000
  I   I165      1.0  0.32234  0.61738  0.86205  1.0000
  I   I166      1.0  0.41713  0.80548  0.06312  1.0000
  I   I167      1.0  0.42420  0.81011  0.36845  1.0000
  I   I168      1.0  0.39995  0.81462  0.71882  1.0000
  I   I169      1.0  0.63810  0.08165  0.18410  1.0000
  I   I170      1.0  0.63611  0.08292  0.51553  1.0000
  I   I171      1.0  0.64322  0.08643  0.85460  1.0000
  I   I172      1.0  0.56184  0.38772  0.18756  1.0000
  I   I173      1.0  0.58428  0.39320  0.50517  1.0000
  I   I174      1.0  0.58466  0.37178  0.83934  1.0000
  I   I175      1.0  0.65748  0.56989  0.01859  1.0000
  I   I176      1.0  0.64412  0.55831  0.35182  1.0000
  I   I177      1.0  0.65303  0.56779  0.68143  1.0000
  I   I178      1.0  0.64402  0.79971  0.12900  1.0000
  I   I179      1.0  0.64889  0.79644  0.44793  1.0000
  I   I180      1.0  0.64157  0.80440  0.77865  1.0000
  I   I181      1.0  0.82711  0.11431  0.09186  1.0000
  I   I182      1.0  0.82519  0.11485  0.44026  1.0000
  I   I183      1.0  0.82893  0.11931  0.75534  1.0000
  I   I184      1.0  0.87012  0.33784  0.07052  1.0000
  I   I185      1.0  0.87470  0.31807  0.41391  1.0000
  I   I186      1.0  0.86741  0.31239  0.74614  1.0000
  I   I187      1.0  0.90929  0.56393  0.15828  1.0000
  I   I188      1.0  0.89769  0.56771  0.47873  1.0000
  I   I189      1.0  0.89100  0.56696  0.82661  1.0000
  I   I190      1.0  0.87533  0.81892  0.22227  1.0000
  I   I191      1.0  0.87945  0.81593  0.54875  1.0000
  I   I192      1.0  0.89693  0.81952  0.87344  1.0000
  I   I193      1.0  0.24457  0.03686  0.10855  1.0000
  I   I194      1.0  0.23421  0.05597  0.44201  1.0000
  I   I195      1.0  0.23430  0.09161  0.77163  1.0000
  I   I196      1.0  0.20604  0.33756  0.28107  1.0000
  I   I197      1.0  0.22163  0.29728  0.64602  1.0000
  I   I198      1.0  0.21101  0.32081  0.96285  1.0000
  I   I199      1.0  0.21119  0.54905  0.36175  1.0000
  I   I200      1.0  0.21614  0.56370  0.66076  1.0000
  I   I201      1.0  0.23799  0.55310  0.01460  1.0000
  I   I202      1.0  0.19227  0.89067  0.19799  1.0000
  I   I203      1.0  0.20328  0.85053  0.52325  1.0000
  I   I204      1.0  0.18883  0.85925  0.87042  1.0000
  I   I205      1.0  0.51093  0.07801  0.22436  1.0000
  I   I206      1.0  0.49258  0.08433  0.54294  1.0000
  I   I207      1.0  0.51154  0.03867  0.89385  1.0000
  I   I208      1.0  0.47084  0.37448  0.29116  1.0000
  I   I209      1.0  0.47172  0.34727  0.60984  1.0000
  I   I210      1.0  0.48059  0.32371  0.97039  1.0000
  I   I211      1.0  0.43632  0.62675  0.19674  1.0000
  I   I212      1.0  0.41068  0.64013  0.59023  1.0000
  I   I213      1.0  0.42998  0.61279  0.90980  1.0000
  I   I214      1.0  0.51751  0.81517  0.09653  1.0000
  I   I215      1.0  0.52445  0.78286  0.45357  1.0000
  I   I216      1.0  0.49853  0.81838  0.76789  1.0000
  I   I217      1.0  0.73656  0.07039  0.23983  1.0000
  I   I218      1.0  0.72638  0.07244  0.60525  1.0000
  I   I219      1.0  0.74678  0.06232  0.92116  1.0000
  I   I220      1.0  0.66476  0.39262  0.22310  1.0000
  I   I221      1.0  0.65377  0.42836  0.57352  1.0000
  I   I222      1.0  0.66228  0.39168  0.91212  1.0000
  I   I223      1.0  0.74462  0.58325  0.08392  1.0000
  I   I224      1.0  0.74555  0.56297  0.42493  1.0000
  I   I225      1.0  0.74047  0.57594  0.75556  1.0000
  I   I226      1.0  0.74478  0.78551  0.17120  1.0000
  I   I227      1.0  0.74850  0.78216  0.50250  1.0000
  I   I228      1.0  0.75209  0.77181  0.82810  1.0000
  I   I229      1.0  0.91792  0.09545  0.15731  1.0000
  I   I230      1.0  0.93783  0.09090  0.51316  1.0000
  I   I231      1.0  0.92804  0.09488  0.81750  1.0000
  I   I232      1.0  0.97421  0.30616  0.11957  1.0000
  I   I233      1.0  0.96993  0.29688  0.47122  1.0000
  I   I234      1.0  0.96703  0.30622  0.77710  1.0000
  I   I235      1.0  0.99444  0.58704  0.21293  1.0000
  I   I236      1.0  0.97930  0.57288  0.55883  1.0000
  I   I237      1.0  0.98993  0.57146  0.87024  1.0000
  I   I238      1.0  0.97411  0.82090  0.26419  1.0000
  I   I239      1.0  0.96375  0.84802  0.60388  1.0000
  I   I240      1.0  0.96818  0.84888  0.94641  1.0000
  I   I241      1.0  0.18625  0.99890  0.18457  1.0000
  I   I242      1.0  0.18372  0.00113  0.52343  1.0000
  I   I243      1.0  0.22106  0.01342  0.85444  1.0000
  I   I244      1.0  0.18215  0.25616  0.37845  1.0000
  I   I245      1.0  0.15298  0.27026  0.73929  1.0000
  I   I246      1.0  0.16624  0.25138  0.01595  1.0000
  I   I247      1.0  0.12890  0.53333  0.42877  1.0000
  I   I248      1.0  0.15755  0.52256  0.74966  1.0000
  I   I249      1.0  0.17813  0.50972  0.08849  1.0000
  I   I250      1.0  0.16941  0.81064  0.26979  1.0000
  I   I251      1.0  0.15881  0.78796  0.61540  1.0000
  I   I252      1.0  0.13404  0.81095  0.96777  1.0000
  I   I253      1.0  0.46911  0.02557  0.32696  1.0000
  I   I254      1.0  0.45402  0.01833  0.64461  1.0000
  I   I255      1.0  0.45643  0.99224  0.95616  1.0000
  I   I256      1.0  0.47610  0.28430  0.35767  1.0000
  I   I257      1.0  0.46146  0.26317  0.70739  1.0000
  I   I258      1.0  0.44509  0.27131  0.07245  1.0000
  I   I259      1.0  0.40935  0.57057  0.32073  1.0000
  I   I260      1.0  0.37924  0.56413  0.65082  1.0000
  I   I261      1.0  0.38390  0.56150  0.00724  1.0000
  I   I262      1.0  0.48993  0.74727  0.17533  1.0000
  I   I263      1.0  0.43779  0.75984  0.51628  1.0000
  I   I264      1.0  0.46149  0.76041  0.87265  1.0000
  I   I265      1.0  0.67548  0.03533  0.34847  1.0000
  I   I266      1.0  0.65463  0.04210  0.67530  1.0000
  I   I267      1.0  0.67521  0.02871  0.98942  1.0000
  I   I268      1.0  0.62056  0.33339  0.29989  1.0000
  I   I269      1.0  0.64437  0.33572  0.62884  1.0000
  I   I270      1.0  0.63085  0.32971  0.00897  1.0000
  I   I271      1.0  0.70577  0.51891  0.15141  1.0000
  I   I272      1.0  0.69838  0.50191  0.50631  1.0000
  I   I273      1.0  0.68590  0.52601  0.83332  1.0000
  I   I274      1.0  0.69825  0.73222  0.28016  1.0000
  I   I275      1.0  0.69302  0.74393  0.61000  1.0000
  I   I276      1.0  0.69637  0.73821  0.91626  1.0000
  I   I277      1.0  0.85130  0.06040  0.23948  1.0000
  I   I278      1.0  0.87155  0.05914  0.59259  1.0000
  I   I279      1.0  0.87910  0.04793  0.89973  1.0000
  I   I280      1.0  0.89952  0.28016  0.20960  1.0000
  I   I281      1.0  0.92956  0.24590  0.56154  1.0000
  I   I282      1.0  0.91275  0.26317  0.88614  1.0000
  I   I283      1.0  0.95702  0.52213  0.30556  1.0000
  I   I284      1.0  0.93130  0.51591  0.63470  1.0000
  I   I285      1.0  0.95373  0.52223  0.99136  1.0000
  I   I286      1.0  0.94251  0.76850  0.38638  1.0000
  I   I287      1.0  0.93503  0.77643  0.69917  1.0000
  I   I288      1.0  0.93435  0.77956  0.04184  1.0000
  I   I289      1.0  0.05019  0.13984  0.02824  1.0000
  I   I290      1.0  0.03778  0.17028  0.34852  1.0000
  I   I291      1.0  0.04547  0.13365  0.68648  1.0000
  I   I292      1.0  0.01565  0.39473  0.22337  1.0000
  I   I293      1.0  0.02561  0.42808  0.54492  1.0000
  I   I294      1.0  0.01593  0.42696  0.85901  1.0000
  I   I295      1.0  0.02664  0.68777  0.23514  1.0000
  I   I296      1.0  0.01824  0.67914  0.57876  1.0000
  I   I297      1.0  0.03512  0.68632  0.94236  1.0000
  I   I298      1.0  0.99004  0.96767  0.10459  1.0000
  I   I299      1.0  0.01452  0.91879  0.45590  1.0000
  I   I300      1.0  0.99610  0.93750  0.77547  1.0000
  I   I301      1.0  0.32068  0.16617  0.14591  1.0000
  I   I302      1.0  0.30671  0.16191  0.48101  1.0000
  I   I303      1.0  0.31913  0.14159  0.82745  1.0000
  I   I304      1.0  0.28423  0.41001  0.23422  1.0000
  I   I305      1.0  0.28126  0.37962  0.54883  1.0000
  I   I306      1.0  0.29549  0.36625  0.87680  1.0000
  I   I307      1.0  0.23644  0.69539  0.18802  1.0000
  I   I308      1.0  0.21525  0.71965  0.46790  1.0000
  I   I309      1.0  0.21520  0.69468  0.81036  1.0000
  I   I310      1.0  0.31925  0.91197  0.04808  1.0000
  I   I311      1.0  0.33099  0.90227  0.35797  1.0000
  I   I312      1.0  0.31380  0.91617  0.69216  1.0000
  I   I313      1.0  0.54555  0.18034  0.14841  1.0000
  I   I314      1.0  0.53650  0.17330  0.50247  1.0000
  I   I315      1.0  0.54168  0.19776  0.85364  1.0000
  I   I316      1.0  0.46524  0.46881  0.16821  1.0000
  I   I317      1.0  0.46956  0.49018  0.46350  1.0000
  I   I318      1.0  0.47739  0.45240  0.80167  1.0000
  I   I319      1.0  0.54291  0.66829  0.98802  1.0000
  I   I320      1.0  0.54804  0.64264  0.34420  1.0000
  I   I321      1.0  0.54461  0.65702  0.65577  1.0000
  I   I322      1.0  0.56277  0.90087  0.07677  1.0000
  I   I323      1.0  0.55772  0.90659  0.44691  1.0000
  I   I324      1.0  0.55770  0.92124  0.75145  1.0000
  I   I325      1.0  0.74169  0.21489  0.09415  1.0000
  I   I326      1.0  0.74436  0.21689  0.42216  1.0000
  I   I327      1.0  0.73831  0.22111  0.74023  1.0000
  I   I328      1.0  0.78868  0.44510  0.03350  1.0000
  I   I329      1.0  0.78710  0.41643  0.38328  1.0000
  I   I330      1.0  0.77149  0.42088  0.72208  1.0000
  I   I331      1.0  0.79750  0.65626  0.13174  1.0000
  I   I332      1.0  0.78931  0.65737  0.46474  1.0000
  I   I333      1.0  0.79149  0.64893  0.82668  1.0000
  I   I334      1.0  0.77790  0.92085  0.21590  1.0000
  I   I335      1.0  0.77222  0.90611  0.52121  1.0000
  I   I336      1.0  0.78469  0.88219  0.85773  1.0000
  I   I337      1.0  0.09024  0.20464  0.93480  1.0000
  I   I338      1.0  0.10236  0.18626  0.24523  1.0000
  I   I339      1.0  0.08505  0.19571  0.59469  1.0000
  I   I340      1.0  0.05163  0.45649  0.12384  1.0000
  I   I341      1.0  0.07682  0.46558  0.46379  1.0000
  I   I342      1.0  0.08810  0.46481  0.81186  1.0000
  I   I343      1.0  0.11106  0.71188  0.15514  1.0000
  I   I344      1.0  0.08361  0.72649  0.50795  1.0000
  I   I345      1.0  0.08580  0.71563  0.82426  1.0000
  I   I346      1.0  0.03685  0.01057  0.99966  1.0000
  I   I347      1.0  0.04226  0.99607  0.39063  1.0000
  I   I348      1.0  0.03373  0.98806  0.67371  1.0000
  I   I349      1.0  0.38696  0.19908  0.05410  1.0000
  I   I350      1.0  0.34705  0.21620  0.37725  1.0000
  I   I351      1.0  0.35797  0.20407  0.74147  1.0000
  I   I352      1.0  0.30576  0.45530  0.10315  1.0000
  I   I353      1.0  0.30531  0.45346  0.45930  1.0000
  I   I354      1.0  0.28589  0.45617  0.79822  1.0000
  I   I355      1.0  0.24409  0.76003  0.07001  1.0000
  I   I356      1.0  0.27451  0.76177  0.39724  1.0000
  I   I357      1.0  0.25067  0.75892  0.75129  1.0000
  I   I358      1.0  0.35060  0.97033  0.94690  1.0000
  I   I359      1.0  0.38158  0.95559  0.27076  1.0000
  I   I360      1.0  0.37790  0.95596  0.59550  1.0000
  I   I361      1.0  0.61622  0.21779  0.08594  1.0000
  I   I362      1.0  0.58987  0.22961  0.41441  1.0000
  I   I363      1.0  0.60966  0.23268  0.77009  1.0000
  I   I364      1.0  0.50620  0.52519  0.07109  1.0000
  I   I365      1.0  0.53346  0.53554  0.38155  1.0000
  I   I366      1.0  0.52761  0.51779  0.74838  1.0000
  I   I367      1.0  0.58088  0.72202  0.90210  1.0000
  I   I368      1.0  0.58652  0.71031  0.29241  1.0000
  I   I369      1.0  0.59744  0.70854  0.58222  1.0000
  I   I370      1.0  0.63258  0.93014  0.01644  1.0000
  I   I371      1.0  0.61622  0.93919  0.34117  1.0000
  I   I372      1.0  0.63235  0.94120  0.67261  1.0000
  I   I373      1.0  0.78917  0.24551  0.96769  1.0000
  I   I374      1.0  0.79869  0.25337  0.32399  1.0000
  I   I375      1.0  0.78952  0.27237  0.66810  1.0000
  I   I376      1.0  0.87420  0.45908  0.95287  1.0000
  I   I377      1.0  0.85104  0.46314  0.30120  1.0000
  I   I378      1.0  0.83510  0.46184  0.63788  1.0000
  I   I379      1.0  0.84957  0.71025  0.04987  1.0000
  I   I380      1.0  0.84065  0.71458  0.38847  1.0000
  I   I381      1.0  0.82557  0.70894  0.70369  1.0000
  I   I382      1.0  0.82003  0.97427  0.10459  1.0000
  I   I383      1.0  0.81652  0.96621  0.44630  1.0000
  I   I384      1.0  0.80706  0.95979  0.77143  1.0000
