data_image0
_chemical_formula_structural       Ti96I384
_chemical_formula_sum              "Ti96 I384"
_cell_length_a       60.8277
_cell_length_b       60.9046
_cell_length_c       29.5506
_cell_angle_alpha    88.7757
_cell_angle_beta     88.7757
_cell_angle_gamma    62.1586

_space_group_name_H-M_alt    "P 1"
_space_group_IT_number       1

loop_
  _space_group_symop_operation_xyz
  'x, y, z'

loop_
  _atom_site_type_symbol
  _atom_site_label
  _atom_site_symmetry_multiplicity
  _atom_site_fract_x
  _atom_site_fract_y
  _atom_site_fract_z
  _atom_site_occupancy
  Ti  Ti1       1.0  0.83324  0.91867  0.49728  1.0000
  Ti  Ti2       1.0  0.52859  0.12161  0.61812  1.0000
  Ti  Ti3       1.0  0.91633  0.77476  0.86324  1.0000
  Ti  Ti4       1.0  0.40325  0.49209  0.41200  1.0000
  Ti  Ti5       1.0  0.08061  0.77052  0.23026  1.0000
  Ti  Ti6       1.0  0.49901  0.99791  0.04508  1.0000
  Ti  Ti7       1.0  0.01850  0.96633  0.08502  1.0000
  Ti  Ti8       1.0  0.10453  0.63992  0.14924  1.0000
  Ti  Ti9       1.0  0.95525  0.05369  0.52960  1.0000
  Ti  Ti10      1.0  0.88636  0.95403  0.09776  1.0000
  Ti  Ti11      1.0  0.25366  0.45899  0.85044  1.0000
  Ti  Ti12      1.0  0.20676  0.71085  0.62061  1.0000
  Ti  Ti13      1.0  0.37364  0.38296  0.47023  1.0000
  Ti  Ti14      1.0  0.26742  0.08307  0.70119  1.0000
  Ti  Ti15      1.0  0.48736  0.75199  0.01494  1.0000
  Ti  Ti16      1.0  0.88194  0.30846  0.75672  1.0000
  Ti  Ti17      1.0  0.28258  0.22966  0.60093  1.0000
  Ti  Ti18      1.0  0.72399  0.61378  0.56218  1.0000
  Ti  Ti19      1.0  0.62476  0.94000  0.19402  1.0000
  Ti  Ti20      1.0  0.38813  0.11817  0.64891  1.0000
  Ti  Ti21      1.0  0.44885  0.37131  0.11165  1.0000
  Ti  Ti22      1.0  0.49412  0.00925  0.51206  1.0000
  Ti  Ti23      1.0  0.58316  0.83730  0.95939  1.0000
  Ti  Ti24      1.0  0.39156  0.97985  0.48146  1.0000
  Ti  Ti25      1.0  0.17561  0.25424  0.09173  1.0000
  Ti  Ti26      1.0  0.88392  0.41918  0.36927  1.0000
  Ti  Ti27      1.0  0.36196  0.56493  0.71776  1.0000
  Ti  Ti28      1.0  0.72027  0.58855  0.99556  1.0000
  Ti  Ti29      1.0  0.03393  0.16937  0.24042  1.0000
  Ti  Ti30      1.0  0.92247  0.52027  0.07301  1.0000
  Ti  Ti31      1.0  0.68349  0.32891  0.41066  1.0000
  Ti  Ti32      1.0  0.71096  0.89882  0.77422  1.0000
  Ti  Ti33      1.0  0.50767  0.73256  0.27740  1.0000
  Ti  Ti34      1.0  0.75095  0.74954  0.64083  1.0000
  Ti  Ti35      1.0  0.83924  0.35519  0.08617  1.0000
  Ti  Ti36      1.0  0.02792  0.51616  0.95938  1.0000
  Ti  Ti37      1.0  0.17005  0.19525  0.43412  1.0000
  Ti  Ti38      1.0  0.55253  0.31715  0.51400  1.0000
  Ti  Ti39      1.0  0.47246  0.21711  0.02563  1.0000
  Ti  Ti40      1.0  0.85162  0.71751  0.34464  1.0000
  Ti  Ti41      1.0  0.71767  0.58663  0.29646  1.0000
  Ti  Ti42      1.0  0.99782  0.85984  0.61773  1.0000
  Ti  Ti43      1.0  0.28335  0.98330  0.97782  1.0000
  Ti  Ti44      1.0  0.80725  0.66264  0.12892  1.0000
  Ti  Ti45      1.0  0.59714  0.51167  0.75969  1.0000
  Ti  Ti46      1.0  0.10241  0.02065  0.74904  1.0000
  Ti  Ti47      1.0  0.78966  0.15402  0.02084  1.0000
  Ti  Ti48      1.0  0.36541  0.56069  0.08651  1.0000
  Ti  Ti49      1.0  0.86624  0.96650  0.55115  1.0000
  Ti  Ti50      1.0  0.67844  0.12811  0.11838  1.0000
  Ti  Ti51      1.0  0.53896  0.08692  0.74764  1.0000
  Ti  Ti52      1.0  0.41160  0.53594  0.46098  1.0000
  Ti  Ti53      1.0  0.03982  0.80888  0.10351  1.0000
  Ti  Ti54      1.0  0.42242  0.05562  0.07229  1.0000
  Ti  Ti55      1.0  0.07981  0.95021  0.10812  1.0000
  Ti  Ti56      1.0  0.14974  0.57380  0.08382  1.0000
  Ti  Ti57      1.0  0.02776  0.04997  0.50158  1.0000
  Ti  Ti58      1.0  0.25711  0.01406  0.12934  1.0000
  Ti  Ti59      1.0  0.88163  0.91844  0.20438  1.0000
  Ti  Ti60      1.0  0.23112  0.72891  0.51667  1.0000
  Ti  Ti61      1.0  0.46163  0.80918  0.96114  1.0000
  Ti  Ti62      1.0  0.35645  0.37554  0.33178  1.0000
  Ti  Ti63      1.0  0.18004  0.14010  0.79072  1.0000
  Ti  Ti64      1.0  0.72455  0.58828  0.69792  1.0000
  Ti  Ti65      1.0  0.89255  0.35087  0.68841  1.0000
  Ti  Ti66      1.0  0.69600  0.25192  0.65634  1.0000
  Ti  Ti67      1.0  0.66406  0.95198  0.06787  1.0000
  Ti  Ti68      1.0  0.43552  0.06351  0.76703  1.0000
  Ti  Ti69      1.0  0.46441  0.39706  0.01650  1.0000
  Ti  Ti70      1.0  0.44987  0.97377  0.56533  1.0000
  Ti  Ti71      1.0  0.58047  0.85376  0.10059  1.0000
  Ti  Ti72      1.0  0.80042  0.79709  0.15061  1.0000
  Ti  Ti73      1.0  0.37625  0.60348  0.76731  1.0000
  Ti  Ti74      1.0  0.11669  0.25616  0.14039  1.0000
  Ti  Ti75      1.0  0.83461  0.47745  0.34303  1.0000
  Ti  Ti76      1.0  0.87416  0.50866  0.00541  1.0000
  Ti  Ti77      1.0  0.64504  0.64568  0.97131  1.0000
  Ti  Ti78      1.0  0.06386  0.17944  0.13944  1.0000
  Ti  Ti79      1.0  0.47465  0.78448  0.34597  1.0000
  Ti  Ti80      1.0  0.64831  0.36045  0.56045  1.0000
  Ti  Ti81      1.0  0.78552  0.86406  0.78984  1.0000
  Ti  Ti82      1.0  0.76089  0.78791  0.68311  1.0000
  Ti  Ti83      1.0  0.83101  0.30959  0.02038  1.0000
  Ti  Ti84      1.0  0.98574  0.57195  0.94212  1.0000
  Ti  Ti85      1.0  0.19874  0.12782  0.48773  1.0000
  Ti  Ti86      1.0  0.62592  0.26952  0.54731  1.0000
  Ti  Ti87      1.0  0.54387  0.19921  0.98243  1.0000
  Ti  Ti88      1.0  0.87159  0.72702  0.47381  1.0000
  Ti  Ti89      1.0  0.66438  0.64568  0.27371  1.0000
  Ti  Ti90      1.0  0.98349  0.81007  0.61699  1.0000
  Ti  Ti91      1.0  0.53017  0.55927  0.71543  1.0000
  Ti  Ti92      1.0  0.97211  0.16958  0.01272  1.0000
  Ti  Ti93      1.0  0.72248  0.71505  0.16304  1.0000
  Ti  Ti94      1.0  0.39469  0.59223  0.15718  1.0000
  Ti  Ti95      1.0  0.08558  0.97641  0.75801  1.0000
  Ti  Ti96      1.0  0.76119  0.10253  0.07912  1.0000
  I   I1        1.0  0.77925  0.10473  0.15747  1.0000
  I   I2        1.0  0.57715  0.09355  0.72990  1.0000
  I   I3        1.0  0.83707  0.88006  0.53688  1.0000
  I   I4        1.0  0.01511  0.85651  0.10975  1.0000
  I   I5        1.0  0.52591  0.96395  0.98718  1.0000
  I   I6        1.0  0.39562  0.06181  0.00460  1.0000
  I   I7        1.0  0.15098  0.55949  0.99483  1.0000
  I   I8        1.0  0.14684  0.53559  0.12191  1.0000
  I   I9        1.0  0.91232  0.08464  0.49583  1.0000
  I   I10       1.0  0.89658  0.99054  0.12544  1.0000
  I   I11       1.0  0.28590  0.41257  0.84130  1.0000
  I   I12       1.0  0.03014  0.79158  0.19637  1.0000
  I   I13       1.0  0.34860  0.41477  0.39111  1.0000
  I   I14       1.0  0.24018  0.05986  0.68513  1.0000
  I   I15       1.0  0.49578  0.76849  0.08686  1.0000
  I   I16       1.0  0.91427  0.35120  0.76543  1.0000
  I   I17       1.0  0.70580  0.20794  0.63074  1.0000
  I   I18       1.0  0.75731  0.56898  0.62914  1.0000
  I   I19       1.0  0.48159  0.04960  0.74357  1.0000
  I   I20       1.0  0.21062  0.46205  0.84661  1.0000
  I   I21       1.0  0.48029  0.42305  0.96726  1.0000
  I   I22       1.0  0.54967  0.88557  0.97247  1.0000
  I   I23       1.0  0.57795  0.89720  0.12916  1.0000
  I   I24       1.0  0.47031  0.92612  0.56834  1.0000
  I   I25       1.0  0.07273  0.26309  0.11801  1.0000
  I   I26       1.0  0.83169  0.44205  0.40380  1.0000
  I   I27       1.0  0.40448  0.55256  0.76716  1.0000
  I   I28       1.0  0.62047  0.63413  0.91125  1.0000
  I   I29       1.0  0.06689  0.13188  0.14906  1.0000
  I   I30       1.0  0.91572  0.47616  0.05981  1.0000
  I   I31       1.0  0.68232  0.34529  0.62207  1.0000
  I   I32       1.0  0.80005  0.88913  0.83261  1.0000
  I   I33       1.0  0.42524  0.80629  0.34834  1.0000
  I   I34       1.0  0.86928  0.34660  0.01893  1.0000
  I   I35       1.0  0.97050  0.62417  0.94431  1.0000
  I   I36       1.0  0.77799  0.70303  0.61594  1.0000
  I   I37       1.0  0.14545  0.20704  0.35191  1.0000
  I   I38       1.0  0.53108  0.20139  0.89559  1.0000
  I   I39       1.0  0.23464  0.09179  0.53116  1.0000
  I   I40       1.0  0.74770  0.54681  0.24399  1.0000
  I   I41       1.0  0.96293  0.85448  0.55679  1.0000
  I   I42       1.0  0.91569  0.70461  0.50593  1.0000
  I   I43       1.0  0.27848  0.96389  0.12092  1.0000
  I   I44       1.0  0.70695  0.75774  0.12474  1.0000
  I   I45       1.0  0.51474  0.61082  0.70526  1.0000
  I   I46       1.0  0.15078  0.99366  0.76354  1.0000
  I   I47       1.0  0.81385  0.10707  0.05834  1.0000
  I   I48       1.0  0.31716  0.58185  0.05968  1.0000
  I   I49       1.0  0.84781  0.01476  0.54745  1.0000
  I   I50       1.0  0.56526  0.13042  0.57547  1.0000
  I   I51       1.0  0.49556  0.15294  0.56193  1.0000
  I   I52       1.0  0.40740  0.49506  0.32662  1.0000
  I   I53       1.0  0.07112  0.74281  0.28635  1.0000
  I   I54       1.0  0.42583  0.09529  0.05361  1.0000
  I   I55       1.0  0.98816  0.01417  0.08545  1.0000
  I   I56       1.0  0.12552  0.67207  0.16474  1.0000
  I   I57       1.0  0.97633  0.08897  0.51332  1.0000
  I   I58       1.0  0.87621  0.95908  0.01184  1.0000
  I   I59       1.0  0.88902  0.90826  0.11274  1.0000
  I   I60       1.0  0.21715  0.70380  0.71235  1.0000
  I   I61       1.0  0.37326  0.33363  0.28786  1.0000
  I   I62       1.0  0.36944  0.39643  0.25689  1.0000
  I   I63       1.0  0.28995  0.06448  0.77860  1.0000
  I   I64       1.0  0.85043  0.32100  0.83288  1.0000
  I   I65       1.0  0.87190  0.40063  0.69584  1.0000
  I   I66       1.0  0.71805  0.24350  0.73552  1.0000
  I   I67       1.0  0.70403  0.95663  0.06410  1.0000
  I   I68       1.0  0.35368  0.10553  0.63429  1.0000
  I   I69       1.0  0.44510  0.36171  0.19434  1.0000
  I   I70       1.0  0.44209  0.01908  0.52951  1.0000
  I   I71       1.0  0.60731  0.84731  0.89656  1.0000
  I   I72       1.0  0.76453  0.80839  0.20949  1.0000
  I   I73       1.0  0.35475  0.64730  0.72791  1.0000
  I   I74       1.0  0.79500  0.50398  0.38471  1.0000
  I   I75       1.0  0.86867  0.47141  0.41748  1.0000
  I   I76       1.0  0.74486  0.59642  0.92349  1.0000
  I   I77       1.0  0.68670  0.64163  0.02242  1.0000
  I   I78       1.0  0.06040  0.19203  0.05381  1.0000
  I   I79       1.0  0.47312  0.82541  0.31903  1.0000
  I   I80       1.0  0.63834  0.34939  0.48106  1.0000
  I   I81       1.0  0.73881  0.87251  0.84898  1.0000
  I   I82       1.0  0.74649  0.74956  0.72874  1.0000
  I   I83       1.0  0.86778  0.34767  0.16075  1.0000
  I   I84       1.0  0.98754  0.57013  0.85038  1.0000
  I   I85       1.0  0.21807  0.15148  0.43069  1.0000
  I   I86       1.0  0.58205  0.27132  0.56159  1.0000
  I   I87       1.0  0.52569  0.18046  0.04352  1.0000
  I   I88       1.0  0.82262  0.74739  0.28891  1.0000
  I   I89       1.0  0.64012  0.63998  0.20058  1.0000
  I   I90       1.0  0.03177  0.81059  0.61998  1.0000
  I   I91       1.0  0.56271  0.55057  0.80718  1.0000
  I   I92       1.0  0.95578  0.13965  0.98261  1.0000
  I   I93       1.0  0.69005  0.70908  0.11634  1.0000
  I   I94       1.0  0.40400  0.56963  0.04908  1.0000
  I   I95       1.0  0.05272  0.03332  0.72020  1.0000
  I   I96       1.0  0.79186  0.06349  0.04257  1.0000
  I   I97       1.0  0.94076  0.78317  0.93265  1.0000
  I   I98       1.0  0.86561  0.96318  0.64762  1.0000
  I   I99       1.0  0.54244  0.08301  0.56583  1.0000
  I   I100      1.0  0.45191  0.48742  0.42681  1.0000
  I   I101      1.0  0.44311  0.53551  0.52668  1.0000
  I   I102      1.0  0.07488  0.80550  0.28471  1.0000
  I   I103      1.0  0.99248  0.95170  0.13804  1.0000
  I   I104      1.0  0.07506  0.93625  0.19349  1.0000
  I   I105      1.0  0.06233  0.02494  0.56318  1.0000
  I   I106      1.0  0.24924  0.75341  0.56565  1.0000
  I   I107      1.0  0.91011  0.87166  0.21684  1.0000
  I   I108      1.0  0.26770  0.70068  0.46838  1.0000
  I   I109      1.0  0.45877  0.77109  0.92321  1.0000
  I   I110      1.0  0.33746  0.41598  0.51457  1.0000
  I   I111      1.0  0.22320  0.12746  0.72702  1.0000
  I   I112      1.0  0.73512  0.55277  0.75413  1.0000
  I   I113      1.0  0.84521  0.34941  0.70554  1.0000
  I   I114      1.0  0.30766  0.25494  0.59337  1.0000
  I   I115      1.0  0.62985  0.94006  0.27959  1.0000
  I   I116      1.0  0.64205  0.97645  0.99295  1.0000
  I   I117      1.0  0.42209  0.11553  0.72116  1.0000
  I   I118      1.0  0.50570  0.95976  0.53801  1.0000
  I   I119      1.0  0.50072  0.99838  0.42457  1.0000
  I   I120      1.0  0.81147  0.75298  0.12027  1.0000
  I   I121      1.0  0.33926  0.56080  0.63968  1.0000
  I   I122      1.0  0.12781  0.27737  0.05008  1.0000
  I   I123      1.0  0.88095  0.38460  0.32446  1.0000
  I   I124      1.0  0.91322  0.51743  0.97300  1.0000
  I   I125      1.0  0.61341  0.64321  0.03333  1.0000
  I   I126      1.0  0.11345  0.15330  0.14520  1.0000
  I   I127      1.0  0.52501  0.68563  0.30817  1.0000
  I   I128      1.0  0.72987  0.31009  0.39109  1.0000
  I   I129      1.0  0.80638  0.82173  0.83234  1.0000
  I   I130      1.0  0.03380  0.48727  0.03826  1.0000
  I   I131      1.0  0.70697  0.75087  0.61915  1.0000
  I   I132      1.0  0.79551  0.29248  0.01597  1.0000
  I   I133      1.0  0.45499  0.18874  0.07292  1.0000
  I   I134      1.0  0.52161  0.35577  0.54999  1.0000
  I   I135      1.0  0.62737  0.27759  0.45927  1.0000
  I   I136      1.0  0.01595  0.88790  0.65282  1.0000
  I   I137      1.0  0.82802  0.75178  0.41970  1.0000
  I   I138      1.0  0.70678  0.63632  0.32926  1.0000
  I   I139      1.0  0.57540  0.55344  0.69158  1.0000
  I   I140      1.0  0.96790  0.17025  0.10232  1.0000
  I   I141      1.0  0.76774  0.70821  0.19589  1.0000
  I   I142      1.0  0.41592  0.62088  0.13109  1.0000
  I   I143      1.0  0.04652  0.97934  0.79104  1.0000
  I   I144      1.0  0.76031  0.19642  0.04923  1.0000
  I   I145      1.0  0.87442  0.91688  0.55321  1.0000
  I   I146      1.0  0.51418  0.11012  0.81710  1.0000
  I   I147      1.0  0.88102  0.76744  0.89700  1.0000
  I   I148      1.0  0.43034  0.55356  0.40390  1.0000
  I   I149      1.0  0.00319  0.79490  0.09137  1.0000
  I   I150      1.0  0.48991  0.03838  0.99020  1.0000
  I   I151      1.0  0.12542  0.92115  0.09214  1.0000
  I   I152      1.0  0.15197  0.59461  0.17591  1.0000
  I   I153      1.0  0.95435  0.06105  0.61160  1.0000
  I   I154      1.0  0.32504  0.94241  0.97118  1.0000
  I   I155      1.0  0.27372  0.48359  0.89011  1.0000
  I   I156      1.0  0.16617  0.70385  0.62631  1.0000
  I   I157      1.0  0.51555  0.77644  0.96562  1.0000
  I   I158      1.0  0.15225  0.12492  0.82898  1.0000
  I   I159      1.0  0.46887  0.82748  0.88872  1.0000
  I   I160      1.0  0.72389  0.63595  0.64780  1.0000
  I   I161      1.0  0.25023  0.24284  0.54270  1.0000
  I   I162      1.0  0.77107  0.60594  0.53978  1.0000
  I   I163      1.0  0.69413  0.90734  0.03988  1.0000
  I   I164      1.0  0.43546  0.08644  0.83791  1.0000
  I   I165      1.0  0.47612  0.34879  0.98444  1.0000
  I   I166      1.0  0.45090  0.98680  0.65131  1.0000
  I   I167      1.0  0.56483  0.81625  0.90518  1.0000
  I   I168      1.0  0.39172  0.98051  0.39223  1.0000
  I   I169      1.0  0.16400  0.29799  0.11880  1.0000
  I   I170      1.0  0.20645  0.22587  0.15838  1.0000
  I   I171      1.0  0.34447  0.53829  0.76000  1.0000
  I   I172      1.0  0.88462  0.49105  0.91868  1.0000
  I   I173      1.0  0.05927  0.20657  0.20958  1.0000
  I   I174      1.0  0.92326  0.56134  0.06744  1.0000
  I   I175      1.0  0.68337  0.28787  0.42521  1.0000
  I   I176      1.0  0.80518  0.84584  0.71547  1.0000
  I   I177      1.0  0.50180  0.78698  0.41161  1.0000
  I   I178      1.0  0.79447  0.74074  0.68198  1.0000
  I   I179      1.0  0.82583  0.31943  0.11835  1.0000
  I   I180      1.0  0.00191  0.55397  0.02695  1.0000
  I   I181      1.0  0.19151  0.22491  0.41179  1.0000
  I   I182      1.0  0.64263  0.22269  0.54135  1.0000
  I   I183      1.0  0.42582  0.25606  0.02748  1.0000
  I   I184      1.0  0.88250  0.73712  0.37027  1.0000
  I   I185      1.0  0.74585  0.57414  0.36798  1.0000
  I   I186      1.0  0.99461  0.78022  0.68343  1.0000
  I   I187      1.0  0.01975  0.15410  0.00057  1.0000
  I   I188      1.0  0.76355  0.68893  0.09091  1.0000
  I   I189      1.0  0.64100  0.49102  0.72615  1.0000
  I   I190      1.0  0.08987  0.06637  0.77951  1.0000
  I   I191      1.0  0.70970  0.15020  0.11992  1.0000
  I   I192      1.0  0.37981  0.55075  0.16809  1.0000
  I   I193      1.0  0.83228  0.96876  0.49301  1.0000
  I   I194      1.0  0.66520  0.12125  0.19553  1.0000
  I   I195      1.0  0.90699  0.81271  0.81004  1.0000
  I   I196      1.0  0.38134  0.46327  0.40488  1.0000
  I   I197      1.0  0.21809  0.01436  0.16992  1.0000
  I   I198      1.0  0.46063  0.03236  0.12621  1.0000
  I   I199      1.0  0.05615  0.91960  0.06957  1.0000
  I   I200      1.0  0.19546  0.55984  0.08442  1.0000
  I   I201      1.0  0.94012  0.02032  0.53082  1.0000
  I   I202      1.0  0.84138  0.92119  0.25621  1.0000
  I   I203      1.0  0.43914  0.42204  0.09369  1.0000
  I   I204      1.0  0.18528  0.75793  0.60931  1.0000
  I   I205      1.0  0.31016  0.38720  0.34444  1.0000
  I   I206      1.0  0.20789  0.13784  0.85631  1.0000
  I   I207      1.0  0.41982  0.81825  0.00350  1.0000
  I   I208      1.0  0.86808  0.27410  0.73618  1.0000
  I   I209      1.0  0.25157  0.25584  0.66108  1.0000
  I   I210      1.0  0.68224  0.64528  0.52635  1.0000
  I   I211      1.0  0.62071  0.94474  0.09342  1.0000
  I   I212      1.0  0.41243  0.12928  0.58503  1.0000
  I   I213      1.0  0.47263  0.32247  0.09127  1.0000
  I   I214      1.0  0.54166  0.98800  0.52974  1.0000
  I   I215      1.0  0.61361  0.84256  0.02412  1.0000
  I   I216      1.0  0.40030  0.93543  0.50655  1.0000
  I   I217      1.0  0.20307  0.24784  0.02546  1.0000
  I   I218      1.0  0.91528  0.42189  0.31417  1.0000
  I   I219      1.0  0.38441  0.59198  0.66636  1.0000
  I   I220      1.0  0.68003  0.60671  0.92205  1.0000
  I   I221      1.0  0.01641  0.18921  0.15712  1.0000
  I   I222      1.0  0.90052  0.52671  0.15602  1.0000
  I   I223      1.0  0.69088  0.35102  0.48551  1.0000
  I   I224      1.0  0.69472  0.93954  0.82529  1.0000
  I   I225      1.0  0.46908  0.77249  0.24060  1.0000
  I   I226      1.0  0.75071  0.81406  0.75838  1.0000
  I   I227      1.0  0.81822  0.40302  0.09981  1.0000
  I   I228      1.0  0.00141  0.50799  0.89894  1.0000
  I   I229      1.0  0.19164  0.14261  0.57371  1.0000
  I   I230      1.0  0.55555  0.33052  0.42872  1.0000
  I   I231      1.0  0.56222  0.22882  0.99621  1.0000
  I   I232      1.0  0.89237  0.67856  0.30771  1.0000
  I   I233      1.0  0.70179  0.60803  0.21019  1.0000
  I   I234      1.0  0.99507  0.77767  0.55392  1.0000
  I   I235      1.0  0.23805  0.98619  0.97466  1.0000
  I   I236      1.0  0.84386  0.66672  0.16771  1.0000
  I   I237      1.0  0.60646  0.48204  0.83009  1.0000
  I   I238      1.0  0.08757  0.00610  0.81964  1.0000
  I   I239      1.0  0.75577  0.13610  0.00430  1.0000
  I   I240      1.0  0.35993  0.62163  0.20516  1.0000
  I   I241      1.0  0.78533  0.93951  0.48604  1.0000
  I   I242      1.0  0.51416  0.13872  0.70541  1.0000
  I   I243      1.0  0.95234  0.73960  0.81924  1.0000
  I   I244      1.0  0.37001  0.53825  0.40425  1.0000
  I   I245      1.0  0.12598  0.74601  0.21586  1.0000
  I   I246      1.0  0.52588  0.97368  0.11450  1.0000
  I   I247      1.0  0.05388  0.97924  0.03663  1.0000
  I   I248      1.0  0.06111  0.67563  0.13048  1.0000
  I   I249      1.0  0.00778  0.01539  0.51594  1.0000
  I   I250      1.0  0.91744  0.93099  0.16879  1.0000
  I   I251      1.0  0.24883  0.47957  0.77290  1.0000
  I   I252      1.0  0.19480  0.76812  0.47633  1.0000
  I   I253      1.0  0.38849  0.35002  0.53853  1.0000
  I   I254      1.0  0.29524  0.07175  0.62520  1.0000
  I   I255      1.0  0.47151  0.83007  0.02627  1.0000
  I   I256      1.0  0.92886  0.34972  0.63365  1.0000
  I   I257      1.0  0.28462  0.19013  0.64255  1.0000
  I   I258      1.0  0.72199  0.61664  0.76822  1.0000
  I   I259      1.0  0.57794  0.97740  0.19347  1.0000
  I   I260      1.0  0.42420  0.02819  0.77832  1.0000
  I   I261      1.0  0.40071  0.38067  0.09442  1.0000
  I   I262      1.0  0.48766  0.05508  0.50695  1.0000
  I   I263      1.0  0.56886  0.82065  0.04612  1.0000
  I   I264      1.0  0.34654  0.00328  0.51200  1.0000
  I   I265      1.0  0.15240  0.22011  0.08802  1.0000
  I   I266      1.0  0.82696  0.45766  0.26944  1.0000
  I   I267      1.0  0.32600  0.60609  0.75526  1.0000
  I   I268      1.0  0.73579  0.54490  0.98699  1.0000
  I   I269      1.0  0.06450  0.13492  0.29633  1.0000
  I   I270      1.0  0.83699  0.50102  0.03826  1.0000
  I   I271      1.0  0.63763  0.40824  0.54982  1.0000
  I   I272      1.0  0.67920  0.91314  0.70620  1.0000
  I   I273      1.0  0.53818  0.74775  0.30638  1.0000
  I   I274      1.0  0.78219  0.80876  0.63665  1.0000
  I   I275      1.0  0.82292  0.31532  0.93450  1.0000
  I   I276      1.0  0.07463  0.48692  0.94327  1.0000
  I   I277      1.0  0.14090  0.23069  0.48809  1.0000
  I   I278      1.0  0.59485  0.32302  0.55312  1.0000
  I   I279      1.0  0.49175  0.24720  0.99306  1.0000
  I   I280      1.0  0.85580  0.71040  0.54044  1.0000
  I   I281      1.0  0.67602  0.59706  0.34115  1.0000
  I   I282      1.0  0.00994  0.87619  0.53638  1.0000
  I   I283      1.0  0.28719  0.99879  0.89918  1.0000
  I   I284      1.0  0.79807  0.63921  0.19308  1.0000
  I   I285      1.0  0.56469  0.50081  0.72422  1.0000
  I   I286      1.0  0.10854  0.99042  0.67480  1.0000
  I   I287      1.0  0.73111  0.08353  0.11215  1.0000
  I   I288      1.0  0.37898  0.51446  0.06007  1.0000
  I   I289      1.0  0.84940  0.90492  0.41335  1.0000
  I   I290      1.0  0.67155  0.09512  0.08195  1.0000
  I   I291      1.0  0.50566  0.09392  0.67107  1.0000
  I   I292      1.0  0.40000  0.49903  0.50733  1.0000
  I   I293      1.0  0.07271  0.77912  0.04907  1.0000
  I   I294      1.0  0.46102  0.98957  0.04935  1.0000
  I   I295      1.0  0.00492  0.96074  0.00684  1.0000
  I   I296      1.0  0.09242  0.60091  0.13633  1.0000
  I   I297      1.0  0.04321  0.08119  0.50304  1.0000
  I   I298      1.0  0.22723  0.05676  0.10783  1.0000
  I   I299      1.0  0.84305  0.97228  0.15471  1.0000
  I   I300      1.0  0.21124  0.69849  0.52661  1.0000
  I   I301      1.0  0.45225  0.73665  0.03757  1.0000
  I   I302      1.0  0.39326  0.34622  0.39563  1.0000
  I   I303      1.0  0.28629  0.11696  0.69750  1.0000
  I   I304      1.0  0.67933  0.60099  0.67549  1.0000
  I   I305      1.0  0.92316  0.27464  0.79079  1.0000
  I   I306      1.0  0.66001  0.27179  0.72049  1.0000
  I   I307      1.0  0.65386  0.89339  0.17870  1.0000
  I   I308      1.0  0.35692  0.15656  0.69962  1.0000
  I   I309      1.0  0.49627  0.37359  0.10041  1.0000
  I   I310      1.0  0.39923  0.98840  0.57498  1.0000
  I   I311      1.0  0.61419  0.81555  0.14430  1.0000
  I   I312      1.0  0.77451  0.82752  0.08541  1.0000
  I   I313      1.0  0.41796  0.60260  0.79022  1.0000
  I   I314      1.0  0.12629  0.22303  0.20695  1.0000
  I   I315      1.0  0.90859  0.39148  0.43929  1.0000
  I   I316      1.0  0.96672  0.48650  0.09677  1.0000
  I   I317      1.0  0.75119  0.59332  0.05120  1.0000
  I   I318      1.0  0.00606  0.20451  0.29957  1.0000
  I   I319      1.0  0.52380  0.71332  0.19528  1.0000
  I   I320      1.0  0.66238  0.35067  0.33354  1.0000
  I   I321      1.0  0.68609  0.87393  0.80000  1.0000
  I   I322      1.0  0.76094  0.76543  0.56698  1.0000
  I   I323      1.0  0.80669  0.36124  0.02429  1.0000
  I   I324      1.0  0.94975  0.56203  0.93793  1.0000
  I   I325      1.0  0.18248  0.10383  0.42933  1.0000
  I   I326      1.0  0.66907  0.27401  0.56317  1.0000
  I   I327      1.0  0.58745  0.16063  0.97541  1.0000
  I   I328      1.0  0.86718  0.76849  0.50441  1.0000
  I   I329      1.0  0.62737  0.67764  0.32226  1.0000
  I   I330      1.0  0.97941  0.85420  0.69763  1.0000
  I   I331      1.0  0.49588  0.56118  0.77223  1.0000
  I   I332      1.0  0.28254  0.01458  0.03582  1.0000
  I   I333      1.0  0.69514  0.73157  0.23208  1.0000
  I   I334      1.0  0.42715  0.57253  0.22307  1.0000
  I   I335      1.0  0.08990  0.93703  0.71020  1.0000
  I   I336      1.0  0.83253  0.15298  0.04324  1.0000
  I   I337      1.0  0.90892  0.95233  0.51316  1.0000
  I   I338      1.0  0.64061  0.17080  0.09870  1.0000
  I   I339      1.0  0.55840  0.03985  0.75314  1.0000
  I   I340      1.0  0.36917  0.56412  0.50484  1.0000
  I   I341      1.0  0.07817  0.81007  0.15455  1.0000
  I   I342      1.0  0.38845  0.06727  0.13451  1.0000
  I   I343      1.0  0.08100  0.98730  0.14321  1.0000
  I   I344      1.0  0.11769  0.62638  0.06432  1.0000
  I   I345      1.0  0.04354  0.02696  0.42217  1.0000
  I   I346      1.0  0.28285  0.02613  0.17978  1.0000
  I   I347      1.0  0.88899  0.92885  0.28594  1.0000
  I   I348      1.0  0.25527  0.68733  0.59600  1.0000
  I   I349      1.0  0.52365  0.70722  0.99168  1.0000
  I   I350      1.0  0.41231  0.39167  0.48563  1.0000
  I   I351      1.0  0.15151  0.18710  0.77454  1.0000
  I   I352      1.0  0.72509  0.57653  0.51755  1.0000
  I   I353      1.0  0.90117  0.30600  0.66041  1.0000
  I   I354      1.0  0.73603  0.24789  0.61244  1.0000
  I   I355      1.0  0.65134  0.96085  0.16412  1.0000
  I   I356      1.0  0.41730  0.06511  0.67871  1.0000
  I   I357      1.0  0.42722  0.40970  0.96160  1.0000
  I   I358      1.0  0.44166  0.96891  0.46521  1.0000
  I   I359      1.0  0.54307  0.86073  0.15118  1.0000
  I   I360      1.0  0.83193  0.80893  0.18238  1.0000
  I   I361      1.0  0.37620  0.60645  0.85310  1.0000
  I   I362      1.0  0.10578  0.29482  0.18451  1.0000
  I   I363      1.0  0.84766  0.50714  0.28558  1.0000
  I   I364      1.0  0.84660  0.55589  0.01405  1.0000
  I   I365      1.0  0.62528  0.69371  0.95184  1.0000
  I   I366      1.0  0.00148  0.15477  0.24861  1.0000
  I   I367      1.0  0.47652  0.73410  0.36380  1.0000
  I   I368      1.0  0.60841  0.37865  0.61123  1.0000
  I   I369      1.0  0.74895  0.90111  0.73557  1.0000
  I   I370      1.0  0.71386  0.80835  0.65075  1.0000
  I   I371      1.0  0.86539  0.26193  0.03842  1.0000
  I   I372      1.0  0.03630  0.56380  0.94445  1.0000
  I   I373      1.0  0.15023  0.16318  0.46562  1.0000
  I   I374      1.0  0.52597  0.29263  0.49430  1.0000
  I   I375      1.0  0.47262  0.20262  0.94942  1.0000
  I   I376      1.0  0.85021  0.67954  0.39802  1.0000
  I   I377      1.0  0.68151  0.67184  0.22676  1.0000
  I   I378      1.0  0.93910  0.82396  0.63484  1.0000
  I   I379      1.0  0.52250  0.54709  0.63026  1.0000
  I   I380      1.0  0.93796  0.21130  0.97980  1.0000
  I   I381      1.0  0.83527  0.64461  0.04982  1.0000
  I   I382      1.0  0.35417  0.61169  0.09433  1.0000
  I   I383      1.0  0.13310  0.94644  0.79727  1.0000
  I   I384      1.0  0.79518  0.15615  0.93005  1.0000
