data_image0
_chemical_formula_structural       Ti96I384
_chemical_formula_sum              "Ti96 I384"
_cell_length_a       51.645
_cell_length_b       51.7086
_cell_length_c       24.9263
_cell_angle_alpha    88.7757
_cell_angle_beta     88.7757
_cell_angle_gamma    62.1586

_space_group_name_H-M_alt    "P 1"
_space_group_IT_number       1

loop_
  _space_group_symop_operation_xyz
  'x, y, z'

loop_
  _atom_site_type_symbol
  _atom_site_label
  _atom_site_symmetry_multiplicity
  _atom_site_fract_x
  _atom_site_fract_y
  _atom_site_fract_z
  _atom_site_occupancy
  Ti  Ti1       1.0  0.42302  0.84103  0.38814  1.0000
  Ti  Ti2       1.0  0.12963  0.97101  0.90353  1.0000
  Ti  Ti3       1.0  0.37411  0.90936  0.12688  1.0000
  Ti  Ti4       1.0  0.24853  0.04558  0.50257  1.0000
  Ti  Ti5       1.0  0.12828  0.36998  0.61929  1.0000
  Ti  Ti6       1.0  0.14740  0.20535  0.76392  1.0000
  Ti  Ti7       1.0  0.93099  0.71627  0.01063  1.0000
  Ti  Ti8       1.0  0.89863  0.07151  0.38464  1.0000
  Ti  Ti9       1.0  0.91996  0.75445  0.29191  1.0000
  Ti  Ti10      1.0  0.24853  0.79082  0.86777  1.0000
  Ti  Ti11      1.0  0.05919  0.72180  0.72616  1.0000
  Ti  Ti12      1.0  0.97925  0.89109  0.65150  1.0000
  Ti  Ti13      1.0  0.36476  0.13837  0.36262  1.0000
  Ti  Ti14      1.0  0.40643  0.05478  0.63731  1.0000
  Ti  Ti15      1.0  0.35552  0.07096  0.12701  1.0000
  Ti  Ti16      1.0  0.28298  0.54876  0.14397  1.0000
  Ti  Ti17      1.0  0.13326  0.69494  0.24073  1.0000
  Ti  Ti18      1.0  0.26988  0.47974  0.65191  1.0000
  Ti  Ti19      1.0  0.46017  0.59454  0.40312  1.0000
  Ti  Ti20      1.0  0.63733  0.71845  0.69358  1.0000
  Ti  Ti21      1.0  0.36276  0.57758  0.63707  1.0000
  Ti  Ti22      1.0  0.46195  0.77721  0.70562  1.0000
  Ti  Ti23      1.0  0.63868  0.84552  0.99939  1.0000
  Ti  Ti24      1.0  0.47150  0.74134  0.99156  1.0000
  Ti  Ti25      1.0  0.38629  0.32824  0.83977  1.0000
  Ti  Ti26      1.0  0.30402  0.34876  0.12201  1.0000
  Ti  Ti27      1.0  0.62159  0.39915  0.58552  1.0000
  Ti  Ti28      1.0  0.52458  0.35928  0.18231  1.0000
  Ti  Ti29      1.0  0.64296  0.53290  0.01365  1.0000
  Ti  Ti30      1.0  0.56068  0.61134  0.76816  1.0000
  Ti  Ti31      1.0  0.93260  0.52878  0.04049  1.0000
  Ti  Ti32      1.0  0.77945  0.43374  0.64444  1.0000
  Ti  Ti33      1.0  0.85303  0.51208  0.79501  1.0000
  Ti  Ti34      1.0  0.77490  0.95609  0.24099  1.0000
  Ti  Ti35      1.0  0.66096  0.65495  0.13844  1.0000
  Ti  Ti36      1.0  0.83056  0.62961  0.57606  1.0000
  Ti  Ti37      1.0  0.71948  0.22512  0.31216  1.0000
  Ti  Ti38      1.0  0.78173  0.28294  0.24675  1.0000
  Ti  Ti39      1.0  0.65341  0.27919  0.89513  1.0000
  Ti  Ti40      1.0  0.83163  0.32974  0.99925  1.0000
  Ti  Ti41      1.0  0.80485  0.25313  0.54833  1.0000
  Ti  Ti42      1.0  0.28031  0.82491  0.57189  1.0000
  Ti  Ti43      1.0  0.96546  0.38776  0.20451  1.0000
  Ti  Ti44      1.0  0.00515  0.60447  0.48830  1.0000
  Ti  Ti45      1.0  0.04621  0.56423  0.78517  1.0000
  Ti  Ti46      1.0  0.69889  0.87605  0.53139  1.0000
  Ti  Ti47      1.0  0.61449  0.02660  0.39658  1.0000
  Ti  Ti48      1.0  0.53441  0.20052  0.01195  1.0000
  Ti  Ti49      1.0  0.37429  0.89651  0.30358  1.0000
  Ti  Ti50      1.0  0.09841  0.93534  0.04517  1.0000
  Ti  Ti51      1.0  0.21029  0.97225  0.86738  1.0000
  Ti  Ti52      1.0  0.19259  0.03765  0.54419  1.0000
  Ti  Ti53      1.0  0.17400  0.31006  0.52423  1.0000
  Ti  Ti54      1.0  0.15408  0.22112  0.93333  1.0000
  Ti  Ti55      1.0  0.88845  0.77504  0.12746  1.0000
  Ti  Ti56      1.0  0.88588  0.06153  0.53178  1.0000
  Ti  Ti57      1.0  0.96098  0.80069  0.36952  1.0000
  Ti  Ti58      1.0  0.19019  0.78808  0.75791  1.0000
  Ti  Ti59      1.0  0.32525  0.75426  0.95633  1.0000
  Ti  Ti60      1.0  0.02699  0.80526  0.67692  1.0000
  Ti  Ti61      1.0  0.39438  0.05979  0.26819  1.0000
  Ti  Ti62      1.0  0.34745  0.21719  0.38518  1.0000
  Ti  Ti63      1.0  0.35509  0.14944  0.68964  1.0000
  Ti  Ti64      1.0  0.25415  0.47845  0.48134  1.0000
  Ti  Ti65      1.0  0.19927  0.59023  0.19861  1.0000
  Ti  Ti66      1.0  0.12246  0.64377  0.37679  1.0000
  Ti  Ti67      1.0  0.41310  0.62320  0.48826  1.0000
  Ti  Ti68      1.0  0.70475  0.65964  0.81375  1.0000
  Ti  Ti69      1.0  0.27601  0.64425  0.62116  1.0000
  Ti  Ti70      1.0  0.47371  0.75964  0.84684  1.0000
  Ti  Ti71      1.0  0.54983  0.88491  0.07623  1.0000
  Ti  Ti72      1.0  0.72323  0.81624  0.98891  1.0000
  Ti  Ti73      1.0  0.56528  0.44985  0.68209  1.0000
  Ti  Ti74      1.0  0.30959  0.35599  0.94035  1.0000
  Ti  Ti75      1.0  0.26220  0.38128  0.24232  1.0000
  Ti  Ti76      1.0  0.58964  0.59180  0.62169  1.0000
  Ti  Ti77      1.0  0.53143  0.42258  0.13705  1.0000
  Ti  Ti78      1.0  0.60133  0.54482  0.89279  1.0000
  Ti  Ti79      1.0  0.92498  0.47353  0.92039  1.0000
  Ti  Ti80      1.0  0.98301  0.55502  0.12323  1.0000
  Ti  Ti81      1.0  0.84617  0.42396  0.75213  1.0000
  Ti  Ti82      1.0  0.74602  0.02014  0.16317  1.0000
  Ti  Ti83      1.0  0.72063  0.67390  0.24440  1.0000
  Ti  Ti84      1.0  0.75733  0.64181  0.52278  1.0000
  Ti  Ti85      1.0  0.64533  0.21064  0.28434  1.0000
  Ti  Ti86      1.0  0.80674  0.19681  0.22786  1.0000
  Ti  Ti87      1.0  0.67661  0.34030  0.92591  1.0000
  Ti  Ti88      1.0  0.90456  0.27853  0.97279  1.0000
  Ti  Ti89      1.0  0.79655  0.25422  0.71364  1.0000
  Ti  Ti90      1.0  0.27756  0.82897  0.40974  1.0000
  Ti  Ti91      1.0  0.10889  0.56542  0.80616  1.0000
  Ti  Ti92      1.0  0.92181  0.35128  0.29447  1.0000
  Ti  Ti93      1.0  0.97987  0.58385  0.64812  1.0000
  Ti  Ti94      1.0  0.47214  0.18837  0.00683  1.0000
  Ti  Ti95      1.0  0.64487  0.94800  0.45608  1.0000
  Ti  Ti96      1.0  0.53775  0.10301  0.36379  1.0000
  I   I1        1.0  0.07709  0.90075  0.01838  1.0000
  I   I2        1.0  0.19474  0.94457  0.95033  1.0000
  I   I3        1.0  0.32423  0.94087  0.32895  1.0000
  I   I4        1.0  0.17388  0.25642  0.52055  1.0000
  I   I5        1.0  0.16857  0.18402  0.02212  1.0000
  I   I6        1.0  0.13775  0.16613  0.71227  1.0000
  I   I7        1.0  0.85039  0.10304  0.45763  1.0000
  I   I8        1.0  0.85907  0.08542  0.30798  1.0000
  I   I9        1.0  0.94222  0.74386  0.16841  1.0000
  I   I10       1.0  0.27254  0.74623  0.96372  1.0000
  I   I11       1.0  0.08189  0.76121  0.65183  1.0000
  I   I12       1.0  0.19745  0.75829  0.66515  1.0000
  I   I13       1.0  0.34149  0.18739  0.28915  1.0000
  I   I14       1.0  0.41396  0.09865  0.68107  1.0000
  I   I15       1.0  0.36397  0.03572  0.22881  1.0000
  I   I16       1.0  0.23720  0.54321  0.25515  1.0000
  I   I17       1.0  0.09393  0.67830  0.28634  1.0000
  I   I18       1.0  0.27523  0.43920  0.55733  1.0000
  I   I19       1.0  0.71573  0.61299  0.87122  1.0000
  I   I20       1.0  0.26446  0.68955  0.56434  1.0000
  I   I21       1.0  0.39965  0.57237  0.71135  1.0000
  I   I22       1.0  0.52360  0.93427  0.01840  1.0000
  I   I23       1.0  0.60120  0.87460  0.92446  1.0000
  I   I24       1.0  0.46424  0.71477  0.89777  1.0000
  I   I25       1.0  0.30657  0.31975  0.87681  1.0000
  I   I26       1.0  0.25322  0.39825  0.13771  1.0000
  I   I27       1.0  0.55848  0.49395  0.61569  1.0000
  I   I28       1.0  0.50097  0.42515  0.22379  1.0000
  I   I29       1.0  0.58333  0.52020  0.97029  1.0000
  I   I30       1.0  0.55482  0.57368  0.68153  1.0000
  I   I31       1.0  0.99476  0.50407  0.03552  1.0000
  I   I32       1.0  0.84267  0.40612  0.65605  1.0000
  I   I33       1.0  0.91362  0.47716  0.80718  1.0000
  I   I34       1.0  0.68262  0.69662  0.14578  1.0000
  I   I35       1.0  0.80453  0.61387  0.46359  1.0000
  I   I36       1.0  0.72788  0.01527  0.06575  1.0000
  I   I37       1.0  0.74421  0.24264  0.23340  1.0000
  I   I38       1.0  0.70637  0.36207  0.97737  1.0000
  I   I39       1.0  0.61200  0.23393  0.20800  1.0000
  I   I40       1.0  0.75875  0.23229  0.73608  1.0000
  I   I41       1.0  0.22949  0.83037  0.35936  1.0000
  I   I42       1.0  0.86664  0.27663  0.05833  1.0000
  I   I43       1.0  0.95083  0.31097  0.36529  1.0000
  I   I44       1.0  0.00072  0.55584  0.54058  1.0000
  I   I45       1.0  0.01030  0.54882  0.83600  1.0000
  I   I46       1.0  0.64428  0.93563  0.56886  1.0000
  I   I47       1.0  0.55382  0.04450  0.40530  1.0000
  I   I48       1.0  0.42663  0.22575  0.95080  1.0000
  I   I49       1.0  0.43720  0.86671  0.28363  1.0000
  I   I50       1.0  0.09599  0.98660  0.99746  1.0000
  I   I51       1.0  0.20097  0.01307  0.79454  1.0000
  I   I52       1.0  0.24562  0.05001  0.61103  1.0000
  I   I53       1.0  0.08871  0.36677  0.69008  1.0000
  I   I54       1.0  0.14764  0.25212  0.83362  1.0000
  I   I55       1.0  0.82735  0.79170  0.11739  1.0000
  I   I56       1.0  0.91993  0.01571  0.60188  1.0000
  I   I57       1.0  0.92133  0.80838  0.26974  1.0000
  I   I58       1.0  0.25036  0.83330  0.91795  1.0000
  I   I59       1.0  0.32091  0.75263  0.06534  1.0000
  I   I60       1.0  0.97096  0.83900  0.65943  1.0000
  I   I61       1.0  0.41244  0.09943  0.30523  1.0000
  I   I62       1.0  0.35608  0.25382  0.31901  1.0000
  I   I63       1.0  0.34417  0.09861  0.66064  1.0000
  I   I64       1.0  0.31406  0.54843  0.06537  1.0000
  I   I65       1.0  0.15992  0.64938  0.15962  1.0000
  I   I66       1.0  0.13860  0.59009  0.40218  1.0000
  I   I67       1.0  0.36426  0.66750  0.52001  1.0000
  I   I68       1.0  0.59364  0.72510  0.74650  1.0000
  I   I69       1.0  0.33594  0.63860  0.64431  1.0000
  I   I70       1.0  0.47136  0.81131  0.81500  1.0000
  I   I71       1.0  0.60257  0.82179  0.05592  1.0000
  I   I72       1.0  0.75998  0.83708  0.99378  1.0000
  I   I73       1.0  0.56317  0.42615  0.58155  1.0000
  I   I74       1.0  0.32810  0.37473  0.03764  1.0000
  I   I75       1.0  0.28768  0.34978  0.33289  1.0000
  I   I76       1.0  0.49403  0.33702  0.22622  1.0000
  I   I77       1.0  0.58031  0.37199  0.11024  1.0000
  I   I78       1.0  0.61237  0.56920  0.79011  1.0000
  I   I79       1.0  0.92346  0.47843  0.03281  1.0000
  I   I80       1.0  0.95077  0.59911  0.18127  1.0000
  I   I81       1.0  0.84244  0.46108  0.84188  1.0000
  I   I82       1.0  0.77515  0.01095  0.27258  1.0000
  I   I83       1.0  0.63071  0.62797  0.15409  1.0000
  I   I84       1.0  0.72188  0.67174  0.44600  1.0000
  I   I85       1.0  0.69116  0.21020  0.23101  1.0000
  I   I86       1.0  0.85778  0.15168  0.24567  1.0000
  I   I87       1.0  0.70525  0.27249  0.94954  1.0000
  I   I88       1.0  0.79750  0.38075  0.96493  1.0000
  I   I89       1.0  0.77135  0.28889  0.47393  1.0000
  I   I90       1.0  0.29821  0.85411  0.48235  1.0000
  I   I91       1.0  0.14874  0.54813  0.73086  1.0000
  I   I92       1.0  0.88511  0.34107  0.23690  1.0000
  I   I93       1.0  0.98467  0.61487  0.75001  1.0000
  I   I94       1.0  0.44721  0.18362  0.09955  1.0000
  I   I95       1.0  0.64275  0.96241  0.35566  1.0000
  I   I96       1.0  0.54329  0.14409  0.31590  1.0000
  I   I97       1.0  0.36635  0.87466  0.20651  1.0000
  I   I98       1.0  0.48052  0.82938  0.40369  1.0000
  I   I99       1.0  0.12939  0.02157  0.89998  1.0000
  I   I100      1.0  0.14418  0.04269  0.51624  1.0000
  I   I101      1.0  0.30709  0.01088  0.47500  1.0000
  I   I102      1.0  0.13601  0.40155  0.69035  1.0000
  I   I103      1.0  0.86625  0.78869  0.25119  1.0000
  I   I104      1.0  0.97675  0.70865  0.94596  1.0000
  I   I105      1.0  0.00345  0.78028  0.43542  1.0000
  I   I106      1.0  0.95508  0.90856  0.55657  1.0000
  I   I107      1.0  0.30689  0.76620  0.84273  1.0000
  I   I108      1.0  0.01629  0.76883  0.61624  1.0000
  I   I109      1.0  0.39924  0.03571  0.36421  1.0000
  I   I110      1.0  0.40133  0.16984  0.36458  1.0000
  I   I111      1.0  0.40971  0.01436  0.70037  1.0000
  I   I112      1.0  0.21727  0.53204  0.49845  1.0000
  I   I113      1.0  0.24858  0.60163  0.19132  1.0000
  I   I114      1.0  0.09231  0.73660  0.19729  1.0000
  I   I115      1.0  0.40543  0.58656  0.55952  1.0000
  I   I116      1.0  0.46078  0.60456  0.29837  1.0000
  I   I117      1.0  0.61809  0.77492  0.68521  1.0000
  I   I118      1.0  0.42752  0.79740  0.93820  1.0000
  I   I119      1.0  0.50036  0.78765  0.66029  1.0000
  I   I120      1.0  0.66845  0.79029  0.96046  1.0000
  I   I121      1.0  0.62742  0.41501  0.48751  1.0000
  I   I122      1.0  0.37102  0.31520  0.94196  1.0000
  I   I123      1.0  0.32424  0.36970  0.19539  1.0000
  I   I124      1.0  0.56364  0.64573  0.68555  1.0000
  I   I125      1.0  0.55784  0.30854  0.14263  1.0000
  I   I126      1.0  0.58912  0.58680  0.97604  1.0000
  I   I127      1.0  0.86323  0.51721  0.89534  1.0000
  I   I128      1.0  0.93329  0.52919  0.15809  1.0000
  I   I129      1.0  0.78954  0.47375  0.71592  1.0000
  I   I130      1.0  0.79176  0.61281  0.61956  1.0000
  I   I131      1.0  0.71535  0.99117  0.22970  1.0000
  I   I132      1.0  0.69215  0.72032  0.30124  1.0000
  I   I133      1.0  0.62913  0.38828  0.89551  1.0000
  I   I134      1.0  0.76980  0.17449  0.30553  1.0000
  I   I135      1.0  0.75314  0.31659  0.16007  1.0000
  I   I136      1.0  0.33302  0.80454  0.61638  1.0000
  I   I137      1.0  0.91534  0.22339  0.93082  1.0000
  I   I138      1.0  0.76080  0.27896  0.61977  1.0000
  I   I139      1.0  0.04756  0.60213  0.85739  1.0000
  I   I140      1.0  0.88293  0.39261  0.35539  1.0000
  I   I141      1.0  0.01976  0.60511  0.60527  1.0000
  I   I142      1.0  0.51919  0.18128  0.93454  1.0000
  I   I143      1.0  0.71009  0.91574  0.45393  1.0000
  I   I144      1.0  0.58638  0.04614  0.30138  1.0000
  I   I145      1.0  0.36838  0.85052  0.35232  1.0000
  I   I146      1.0  0.12754  0.91451  0.93166  1.0000
  I   I147      1.0  0.32580  0.94825  0.08710  1.0000
  I   I148      1.0  0.18672  0.08755  0.49579  1.0000
  I   I149      1.0  0.11952  0.34420  0.49282  1.0000
  I   I150      1.0  0.17668  0.17175  0.85795  1.0000
  I   I151      1.0  0.88556  0.72395  0.08064  1.0000
  I   I152      1.0  0.93382  0.02296  0.33555  1.0000
  I   I153      1.0  0.97889  0.74425  0.32923  1.0000
  I   I154      1.0  0.18859  0.81962  0.87108  1.0000
  I   I155      1.0  0.07363  0.68979  0.63437  1.0000
  I   I156      1.0  0.03196  0.84154  0.60004  1.0000
  I   I157      1.0  0.33929  0.11056  0.33378  1.0000
  I   I158      1.0  0.39698  0.03364  0.54351  1.0000
  I   I159      1.0  0.31531  0.12586  0.12198  1.0000
  I   I160      1.0  0.25238  0.52545  0.71663  1.0000
  I   I161      1.0  0.17979  0.62847  0.28980  1.0000
  I   I162      1.0  0.31722  0.44708  0.70604  1.0000
  I   I163      1.0  0.40182  0.59433  0.41567  1.0000
  I   I164      1.0  0.69419  0.69403  0.89301  1.0000
  I   I165      1.0  0.32223  0.57760  0.70252  1.0000
  I   I166      1.0  0.42566  0.76206  0.78608  1.0000
  I   I167      1.0  0.60361  0.89433  0.05726  1.0000
  I   I168      1.0  0.47566  0.78558  0.03679  1.0000
  I   I169      1.0  0.39323  0.29714  0.75447  1.0000
  I   I170      1.0  0.29764  0.32246  0.02522  1.0000
  I   I171      1.0  0.64162  0.43140  0.62583  1.0000
  I   I172      1.0  0.57257  0.61831  0.52968  1.0000
  I   I173      1.0  0.62322  0.52475  0.10298  1.0000
  I   I174      1.0  0.54495  0.58487  0.86220  1.0000
  I   I175      1.0  0.92838  0.52527  0.92953  1.0000
  I   I176      1.0  0.78078  0.38387  0.62920  1.0000
  I   I177      1.0  0.87033  0.48304  0.70413  1.0000
  I   I178      1.0  0.79948  0.95585  0.14659  1.0000
  I   I179      1.0  0.66836  0.66630  0.25182  1.0000
  I   I180      1.0  0.85431  0.65754  0.51655  1.0000
  I   I181      1.0  0.65819  0.26784  0.31380  1.0000
  I   I182      1.0  0.80788  0.23054  0.31277  1.0000
  I   I183      1.0  0.62762  0.25334  0.94572  1.0000
  I   I184      1.0  0.85472  0.31028  0.90064  1.0000
  I   I185      1.0  0.85484  0.23162  0.48972  1.0000
  I   I186      1.0  0.23437  0.84517  0.49111  1.0000
  I   I187      1.0  0.98719  0.37328  0.10177  1.0000
  I   I188      1.0  0.98091  0.60646  0.39716  1.0000
  I   I189      1.0  0.03405  0.53514  0.69111  1.0000
  I   I190      1.0  0.67526  0.84588  0.55908  1.0000
  I   I191      1.0  0.63195  0.00658  0.50056  1.0000
  I   I192      1.0  0.58126  0.19298  0.07400  1.0000
  I   I193      1.0  0.43941  0.79337  0.33124  1.0000
  I   I194      1.0  0.08270  0.99191  0.84000  1.0000
  I   I195      1.0  0.40926  0.92927  0.09111  1.0000
  I   I196      1.0  0.25704  0.08890  0.46588  1.0000
  I   I197      1.0  0.08745  0.41997  0.57806  1.0000
  I   I198      1.0  0.17175  0.21992  0.69277  1.0000
  I   I199      1.0  0.90339  0.73182  0.92108  1.0000
  I   I200      1.0  0.84923  0.08280  0.61790  1.0000
  I   I201      1.0  0.89215  0.76713  0.38365  1.0000
  I   I202      1.0  0.23775  0.80780  0.76543  1.0000
  I   I203      1.0  0.10657  0.70553  0.77293  1.0000
  I   I204      1.0  0.99977  0.93024  0.65516  1.0000
  I   I205      1.0  0.38444  0.12027  0.45836  1.0000
  I   I206      1.0  0.46231  0.02868  0.61611  1.0000
  I   I207      1.0  0.37750  0.05308  0.03465  1.0000
  I   I208      1.0  0.32252  0.53505  0.22451  1.0000
  I   I209      1.0  0.17680  0.70199  0.21317  1.0000
  I   I210      1.0  0.22542  0.47005  0.67711  1.0000
  I   I211      1.0  0.50812  0.59843  0.41947  1.0000
  I   I212      1.0  0.76050  0.64553  0.79259  1.0000
  I   I213      1.0  0.32462  0.59874  0.53633  1.0000
  I   I214      1.0  0.41689  0.82887  0.69947  1.0000
  I   I215      1.0  0.68630  0.81435  0.07946  1.0000
  I   I216      1.0  0.42886  0.73910  0.04298  1.0000
  I   I217      1.0  0.40453  0.36867  0.81495  1.0000
  I   I218      1.0  0.35754  0.30381  0.12790  1.0000
  I   I219      1.0  0.61005  0.38879  0.68667  1.0000
  I   I220      1.0  0.55511  0.35236  0.26932  1.0000
  I   I221      1.0  0.66812  0.47658  0.00241  1.0000
  I   I222      1.0  0.55732  0.64861  0.84364  1.0000
  I   I223      1.0  0.87558  0.55896  0.03658  1.0000
  I   I224      1.0  0.72333  0.46189  0.67989  1.0000
  I   I225      1.0  0.79689  0.54374  0.79283  1.0000
  I   I226      1.0  0.78544  0.93951  0.34354  1.0000
  I   I227      1.0  0.62403  0.68637  0.06284  1.0000
  I   I228      1.0  0.83475  0.64928  0.67216  1.0000
  I   I229      1.0  0.69468  0.19345  0.37201  1.0000
  I   I230      1.0  0.81140  0.30934  0.24815  1.0000
  I   I231      1.0  0.63644  0.32809  0.97401  1.0000
  I   I232      1.0  0.79005  0.31342  0.00964  1.0000
  I   I233      1.0  0.78575  0.29641  0.77763  1.0000
  I   I234      1.0  0.25204  0.79752  0.60608  1.0000
  I   I235      1.0  0.91951  0.43731  0.17530  1.0000
  I   I236      1.0  0.96915  0.65959  0.49841  1.0000
  I   I237      1.0  0.07848  0.57701  0.70483  1.0000
  I   I238      1.0  0.74469  0.83595  0.48291  1.0000
  I   I239      1.0  0.66934  0.01662  0.37803  1.0000
  I   I240      1.0  0.55208  0.23423  0.94691  1.0000
  I   I241      1.0  0.41250  0.82050  0.47437  1.0000
  I   I242      1.0  0.17055  0.95179  0.82495  1.0000
  I   I243      1.0  0.38962  0.86966  0.04587  1.0000
  I   I244      1.0  0.22990  0.00495  0.45434  1.0000
  I   I245      1.0  0.16897  0.36692  0.53425  1.0000
  I   I246      1.0  0.09301  0.23967  0.73651  1.0000
  I   I247      1.0  0.95099  0.66120  0.04205  1.0000
  I   I248      1.0  0.89932  0.02044  0.45077  1.0000
  I   I249      1.0  0.92956  0.69979  0.28275  1.0000
  I   I250      1.0  0.23620  0.74381  0.82975  1.0000
  I   I251      1.0  0.03940  0.69089  0.78078  1.0000
  I   I252      1.0  0.93597  0.91432  0.71242  1.0000
  I   I253      1.0  0.31511  0.18127  0.42841  1.0000
  I   I254      1.0  0.37367  0.18795  0.67715  1.0000
  I   I255      1.0  0.31852  0.04957  0.12555  1.0000
  I   I256      1.0  0.29220  0.49148  0.13324  1.0000
  I   I257      1.0  0.12945  0.71458  0.34553  1.0000
  I   I258      1.0  0.28019  0.47723  0.39258  1.0000
  I   I259      1.0  0.42691  0.65638  0.40452  1.0000
  I   I260      1.0  0.68761  0.71418  0.74222  1.0000
  I   I261      1.0  0.38661  0.52129  0.60655  1.0000
  I   I262      1.0  0.45643  0.74808  0.62613  1.0000
  I   I263      1.0  0.67721  0.87033  0.97298  1.0000
  I   I264      1.0  0.51540  0.69554  0.02668  1.0000
  I   I265      1.0  0.44354  0.28905  0.85460  1.0000
  I   I266      1.0  0.27543  0.32555  0.19148  1.0000
  I   I267      1.0  0.65866  0.33986  0.57542  1.0000
  I   I268      1.0  0.49968  0.39570  0.10085  1.0000
  I   I269      1.0  0.68717  0.53891  0.05206  1.0000
  I   I270      1.0  0.49835  0.64940  0.76197  1.0000
  I   I271      1.0  0.94168  0.58059  0.04436  1.0000
  I   I272      1.0  0.78046  0.45626  0.55000  1.0000
  I   I273      1.0  0.86278  0.55407  0.75835  1.0000
  I   I274      1.0  0.76478  0.91590  0.20035  1.0000
  I   I275      1.0  0.70542  0.61972  0.08067  1.0000
  I   I276      1.0  0.87438  0.58162  0.59626  1.0000
  I   I277      1.0  0.73250  0.23951  0.40322  1.0000
  I   I278      1.0  0.73675  0.31679  0.31064  1.0000
  I   I279      1.0  0.67466  0.24154  0.82150  1.0000
  I   I280      1.0  0.93508  0.28715  0.90198  1.0000
  I   I281      1.0  0.84481  0.24088  0.63626  1.0000
  I   I282      1.0  0.24988  0.86921  0.63925  1.0000
  I   I283      1.0  0.00500  0.40812  0.21599  1.0000
  I   I284      1.0  0.05687  0.60014  0.46569  1.0000
  I   I285      1.0  0.09576  0.51968  0.82219  1.0000
  I   I286      1.0  0.73029  0.87495  0.61415  1.0000
  I   I287      1.0  0.59383  0.08409  0.42347  1.0000
  I   I288      1.0  0.47593  0.23965  0.04336  1.0000
  I   I289      1.0  0.39034  0.90750  0.40464  1.0000
  I   I290      1.0  0.14100  0.89346  0.10253  1.0000
  I   I291      1.0  0.25653  0.92882  0.82870  1.0000
  I   I292      1.0  0.22136  0.99239  0.60279  1.0000
  I   I293      1.0  0.20353  0.30376  0.43496  1.0000
  I   I294      1.0  0.20898  0.21406  0.94706  1.0000
  I   I295      1.0  0.92102  0.77091  0.02938  1.0000
  I   I296      1.0  0.92380  0.08056  0.50062  1.0000
  I   I297      1.0  0.96502  0.84560  0.32994  1.0000
  I   I298      1.0  0.15950  0.76230  0.79319  1.0000
  I   I299      1.0  0.34946  0.78516  0.95991  1.0000
  I   I300      1.0  0.03128  0.84594  0.74440  1.0000
  I   I301      1.0  0.39480  0.09102  0.17449  1.0000
  I   I302      1.0  0.36676  0.23258  0.46296  1.0000
  I   I303      1.0  0.30959  0.17701  0.63800  1.0000
  I   I304      1.0  0.22104  0.45259  0.44664  1.0000
  I   I305      1.0  0.15734  0.57769  0.20923  1.0000
  I   I306      1.0  0.07308  0.67300  0.42274  1.0000
  I   I307      1.0  0.47996  0.54247  0.45924  1.0000
  I   I308      1.0  0.62528  0.70573  0.60426  1.0000
  I   I309      1.0  0.24350  0.62247  0.58814  1.0000
  I   I310      1.0  0.50384  0.72930  0.76196  1.0000
  I   I311      1.0  0.52016  0.85725  0.07889  1.0000
  I   I312      1.0  0.72125  0.80287  0.88440  1.0000
  I   I313      1.0  0.51412  0.45042  0.71674  1.0000
  I   I314      1.0  0.25582  0.39899  0.94569  1.0000
  I   I315      1.0  0.21225  0.38029  0.24843  1.0000
  I   I316      1.0  0.61053  0.54433  0.57008  1.0000
  I   I317      1.0  0.55714  0.44788  0.18832  1.0000
  I   I318      1.0  0.62715  0.49799  0.83184  1.0000
  I   I319      1.0  0.97812  0.44789  0.88679  1.0000
  I   I320      1.0  0.01836  0.57016  0.06430  1.0000
  I   I321      1.0  0.90392  0.39806  0.75789  1.0000
  I   I322      1.0  0.69915  0.07053  0.18272  1.0000
  I   I323      1.0  0.76414  0.67735  0.20056  1.0000
  I   I324      1.0  0.77359  0.68045  0.56224  1.0000
  I   I325      1.0  0.64624  0.15963  0.27170  1.0000
  I   I326      1.0  0.82770  0.23189  0.17325  1.0000
  I   I327      1.0  0.60437  0.31492  0.84747  1.0000
  I   I328      1.0  0.94495  0.25136  0.04883  1.0000
  I   I329      1.0  0.80302  0.20422  0.55815  1.0000
  I   I330      1.0  0.27469  0.86974  0.34030  1.0000
  I   I331      1.0  0.13116  0.55187  0.90546  1.0000
  I   I332      1.0  0.95090  0.38929  0.31239  1.0000
  I   I333      1.0  0.95009  0.55873  0.68513  1.0000
  I   I334      1.0  0.53001  0.15803  0.07301  1.0000
  I   I335      1.0  0.58791  0.96752  0.46456  1.0000
  I   I336      1.0  0.49646  0.12557  0.43885  1.0000
  I   I337      1.0  0.38470  0.93506  0.22355  1.0000
  I   I338      1.0  0.05928  0.96475  0.11906  1.0000
  I   I339      1.0  0.24156  0.99093  0.92695  1.0000
  I   I340      1.0  0.16547  0.07317  0.63517  1.0000
  I   I341      1.0  0.17483  0.31223  0.64209  1.0000
  I   I342      1.0  0.12244  0.27134  0.97556  1.0000
  I   I343      1.0  0.86636  0.83212  0.12365  1.0000
  I   I344      1.0  0.92115  0.10520  0.34739  1.0000
  I   I345      1.0  0.91997  0.82492  0.44516  1.0000
  I   I346      1.0  0.16188  0.82749  0.69156  1.0000
  I   I347      1.0  0.37627  0.70587  0.95258  1.0000
  I   I348      1.0  0.01534  0.77446  0.75809  1.0000
  I   I349      1.0  0.44416  0.00814  0.23495  1.0000
  I   I350      1.0  0.29121  0.25449  0.38802  1.0000
  I   I351      1.0  0.32309  0.16968  0.77906  1.0000
  I   I352      1.0  0.28158  0.50297  0.56215  1.0000
  I   I353      1.0  0.22943  0.56671  0.09452  1.0000
  I   I354      1.0  0.15142  0.65249  0.45625  1.0000
  I   I355      1.0  0.44762  0.64138  0.54631  1.0000
  I   I356      1.0  0.66753  0.65752  0.73797  1.0000
  I   I357      1.0  0.24843  0.66268  0.71146  1.0000
  I   I358      1.0  0.51635  0.75372  0.91010  1.0000
  I   I359      1.0  0.53823  0.90521  0.17272  1.0000
  I   I360      1.0  0.76235  0.76926  0.03482  1.0000
  I   I361      1.0  0.57807  0.46615  0.77303  1.0000
  I   I362      1.0  0.32897  0.37781  0.85432  1.0000
  I   I363      1.0  0.25016  0.43292  0.27911  1.0000
  I   I364      1.0  0.64085  0.59203  0.63707  1.0000
  I   I365      1.0  0.50014  0.46235  0.06618  1.0000
  I   I366      1.0  0.66652  0.53112  0.90509  1.0000
  I   I367      1.0  0.91907  0.42756  0.93183  1.0000
  I   I368      1.0  0.01903  0.50354  0.17394  1.0000
  I   I369      1.0  0.82730  0.39307  0.80111  1.0000
  I   I370      1.0  0.77065  0.04981  0.12416  1.0000
  I   I371      1.0  0.74757  0.62730  0.30238  1.0000
  I   I372      1.0  0.71690  0.62701  0.55603  1.0000
  I   I373      1.0  0.60640  0.23082  0.36238  1.0000
  I   I374      1.0  0.79974  0.16618  0.14485  1.0000
  I   I375      1.0  0.68523  0.31443  0.83114  1.0000
  I   I376      1.0  0.87680  0.34514  0.00610  1.0000
  I   I377      1.0  0.83966  0.21588  0.78194  1.0000
  I   I378      1.0  0.31619  0.78258  0.36331  1.0000
  I   I379      1.0  0.10641  0.61606  0.80001  1.0000
  I   I380      1.0  0.95374  0.34155  0.19593  1.0000
  I   I381      1.0  0.93195  0.62936  0.61484  1.0000
  I   I382      1.0  0.47308  0.14357  0.96206  1.0000
  I   I383      1.0  0.65386  0.89185  0.43684  1.0000
  I   I384      1.0  0.49520  0.10863  0.29998  1.0000
