data_image0
_chemical_formula_structural       Ti96I384
_chemical_formula_sum              "Ti96 I384"
_cell_length_a       69.5074
_cell_length_b       69.2364
_cell_length_c       33.9537
_cell_angle_alpha    88.7757
_cell_angle_beta     88.7757
_cell_angle_gamma    62.1586

_space_group_name_H-M_alt    "P 1"
_space_group_IT_number       1

loop_
  _space_group_symop_operation_xyz
  'x, y, z'

loop_
  _atom_site_type_symbol
  _atom_site_label
  _atom_site_symmetry_multiplicity
  _atom_site_fract_x
  _atom_site_fract_y
  _atom_site_fract_z
  _atom_site_occupancy
  Ti  Ti1       1.0  0.07661  0.95693  0.57642  1.0000
  Ti  Ti2       1.0  0.03028  0.14668  0.25998  1.0000
  Ti  Ti3       1.0  0.43935  0.96707  0.43324  1.0000
  Ti  Ti4       1.0  0.93141  0.42430  0.46640  1.0000
  Ti  Ti5       1.0  0.28336  0.68501  0.19701  1.0000
  Ti  Ti6       1.0  0.62387  0.99332  0.08197  1.0000
  Ti  Ti7       1.0  0.94772  0.52232  0.61174  1.0000
  Ti  Ti8       1.0  0.26929  0.63235  0.39301  1.0000
  Ti  Ti9       1.0  0.34248  0.05283  0.70511  1.0000
  Ti  Ti10      1.0  0.20139  0.51854  0.62253  1.0000
  Ti  Ti11      1.0  0.22154  0.34009  0.62843  1.0000
  Ti  Ti12      1.0  0.98720  0.62751  0.99233  1.0000
  Ti  Ti13      1.0  0.82417  0.23351  0.67082  1.0000
  Ti  Ti14      1.0  0.83579  0.10041  0.68018  1.0000
  Ti  Ti15      1.0  0.74526  0.85545  0.63489  1.0000
  Ti  Ti16      1.0  0.14823  0.52864  0.65897  1.0000
  Ti  Ti17      1.0  0.30077  0.93160  0.54539  1.0000
  Ti  Ti18      1.0  0.56138  0.74802  0.62411  1.0000
  Ti  Ti19      1.0  0.52448  0.60042  0.59657  1.0000
  Ti  Ti20      1.0  0.38108  0.19675  0.69978  1.0000
  Ti  Ti21      1.0  0.28800  0.56967  0.45058  1.0000
  Ti  Ti22      1.0  0.63264  0.89128  0.47700  1.0000
  Ti  Ti23      1.0  0.30609  0.12488  0.34338  1.0000
  Ti  Ti24      1.0  0.27035  0.72196  0.68620  1.0000
  Ti  Ti25      1.0  0.49018  0.00187  0.06740  1.0000
  Ti  Ti26      1.0  0.13702  0.86411  0.02649  1.0000
  Ti  Ti27      1.0  0.76946  0.19814  0.98433  1.0000
  Ti  Ti28      1.0  0.57456  0.76018  0.00435  1.0000
  Ti  Ti29      1.0  0.03581  0.77870  0.52304  1.0000
  Ti  Ti30      1.0  0.37501  0.91972  0.83131  1.0000
  Ti  Ti31      1.0  0.14188  0.39665  0.86398  1.0000
  Ti  Ti32      1.0  0.19325  0.10492  0.81439  1.0000
  Ti  Ti33      1.0  0.21721  0.86620  0.52082  1.0000
  Ti  Ti34      1.0  0.43515  0.33044  0.12749  1.0000
  Ti  Ti35      1.0  0.69245  0.57987  0.66930  1.0000
  Ti  Ti36      1.0  0.16346  0.18007  0.18588  1.0000
  Ti  Ti37      1.0  0.12937  0.20750  0.59733  1.0000
  Ti  Ti38      1.0  0.42747  0.54122  0.20765  1.0000
  Ti  Ti39      1.0  0.08625  0.50621  0.19888  1.0000
  Ti  Ti40      1.0  0.99900  0.47982  0.85137  1.0000
  Ti  Ti41      1.0  0.36347  0.29227  0.43578  1.0000
  Ti  Ti42      1.0  0.17420  0.92663  0.62973  1.0000
  Ti  Ti43      1.0  0.31556  0.95828  0.21230  1.0000
  Ti  Ti44      1.0  0.67408  0.89199  0.99281  1.0000
  Ti  Ti45      1.0  0.22792  0.35478  0.22910  1.0000
  Ti  Ti46      1.0  0.76746  0.42516  0.26366  1.0000
  Ti  Ti47      1.0  0.45679  0.51492  0.64707  1.0000
  Ti  Ti48      1.0  0.85013  0.02751  0.35718  1.0000
  Ti  Ti49      1.0  0.03117  0.08105  0.53580  1.0000
  Ti  Ti50      1.0  0.13562  0.31092  0.20036  1.0000
  Ti  Ti51      1.0  0.05789  0.14275  0.33599  1.0000
  Ti  Ti52      1.0  0.67149  0.14742  0.87743  1.0000
  Ti  Ti53      1.0  0.37271  0.79830  0.35311  1.0000
  Ti  Ti54      1.0  0.87272  0.91433  0.07982  1.0000
  Ti  Ti55      1.0  0.97465  0.52182  0.47225  1.0000
  Ti  Ti56      1.0  0.68392  0.30632  0.13335  1.0000
  Ti  Ti57      1.0  0.35916  0.06907  0.61036  1.0000
  Ti  Ti58      1.0  0.63482  0.30464  0.65786  1.0000
  Ti  Ti59      1.0  0.60956  0.29546  0.90284  1.0000
  Ti  Ti60      1.0  0.92470  0.67562  0.06289  1.0000
  Ti  Ti61      1.0  0.72689  0.82740  0.59649  1.0000
  Ti  Ti62      1.0  0.82098  0.20320  0.55850  1.0000
  Ti  Ti63      1.0  0.88970  0.07439  0.59202  1.0000
  Ti  Ti64      1.0  0.54180  0.71988  0.68862  1.0000
  Ti  Ti65      1.0  0.76732  0.97474  0.72920  1.0000
  Ti  Ti66      1.0  0.36181  0.23420  0.89392  1.0000
  Ti  Ti67      1.0  0.54205  0.90856  0.23036  1.0000
  Ti  Ti68      1.0  0.51516  0.65466  0.61326  1.0000
  Ti  Ti69      1.0  0.07697  0.87357  0.99385  1.0000
  Ti  Ti70      1.0  0.35043  0.92114  0.24395  1.0000
  Ti  Ti71      1.0  0.27556  0.17875  0.26350  1.0000
  Ti  Ti72      1.0  0.45673  0.45704  0.66350  1.0000
  Ti  Ti73      1.0  0.78414  0.13194  0.05427  1.0000
  Ti  Ti74      1.0  0.50340  0.02182  0.13849  1.0000
  Ti  Ti75      1.0  0.34281  0.80133  0.94195  1.0000
  Ti  Ti76      1.0  0.40516  0.86998  0.79045  1.0000
  Ti  Ti77      1.0  0.55851  0.81222  0.96036  1.0000
  Ti  Ti78      1.0  0.11160  0.72220  0.50814  1.0000
  Ti  Ti79      1.0  0.58192  0.67336  0.38722  1.0000
  Ti  Ti80      1.0  0.00209  0.39385  0.50102  1.0000
  Ti  Ti81      1.0  0.15346  0.10160  0.71252  1.0000
  Ti  Ti82      1.0  0.47843  0.23374  0.20155  1.0000
  Ti  Ti83      1.0  0.68947  0.63874  0.62163  1.0000
  Ti  Ti84      1.0  0.16081  0.15873  0.09601  1.0000
  Ti  Ti85      1.0  0.11067  0.19748  0.52417  1.0000
  Ti  Ti86      1.0  0.37851  0.27870  0.89278  1.0000
  Ti  Ti87      1.0  0.24982  0.39814  0.23714  1.0000
  Ti  Ti88      1.0  0.58076  0.15466  0.10368  1.0000
  Ti  Ti89      1.0  0.36734  0.33646  0.41559  1.0000
  Ti  Ti90      1.0  0.15863  0.98018  0.60726  1.0000
  Ti  Ti91      1.0  0.16283  0.60053  0.90753  1.0000
  Ti  Ti92      1.0  0.36106  0.66420  0.98450  1.0000
  Ti  Ti93      1.0  0.16388  0.72928  0.15779  1.0000
  Ti  Ti94      1.0  0.84439  0.98036  0.30913  1.0000
  Ti  Ti95      1.0  0.73022  0.41145  0.67907  1.0000
  Ti  Ti96      1.0  0.49962  0.55395  0.72968  1.0000
  I   I1        1.0  0.49127  0.49997  0.60039  1.0000
  I   I2        1.0  0.07128  0.10493  0.28770  1.0000
  I   I3        1.0  0.02086  0.12284  0.54173  1.0000
  I   I4        1.0  0.33256  0.80973  0.33411  1.0000
  I   I5        1.0  0.61868  0.96384  0.04863  1.0000
  I   I6        1.0  0.89426  0.91011  0.14600  1.0000
  I   I7        1.0  0.28899  0.61012  0.46081  1.0000
  I   I8        1.0  0.65304  0.30712  0.09194  1.0000
  I   I9        1.0  0.39922  0.06779  0.60320  1.0000
  I   I10       1.0  0.11887  0.53773  0.60994  1.0000
  I   I11       1.0  0.22005  0.30894  0.66129  1.0000
  I   I12       1.0  0.25611  0.67642  0.23729  1.0000
  I   I13       1.0  0.81651  0.20237  0.70141  1.0000
  I   I14       1.0  0.84996  0.10606  0.59700  1.0000
  I   I15       1.0  0.73194  0.89509  0.65857  1.0000
  I   I16       1.0  0.14598  0.50707  0.72101  1.0000
  I   I17       1.0  0.32064  0.25408  0.89634  1.0000
  I   I18       1.0  0.53789  0.79154  0.61989  1.0000
  I   I19       1.0  0.37148  0.23564  0.72413  1.0000
  I   I20       1.0  0.22799  0.36813  0.67094  1.0000
  I   I21       1.0  0.29992  0.63586  0.34950  1.0000
  I   I22       1.0  0.31909  0.08314  0.33143  1.0000
  I   I23       1.0  0.30096  0.18691  0.21769  1.0000
  I   I24       1.0  0.38068  0.91563  0.29180  1.0000
  I   I25       1.0  0.49233  0.06659  0.14076  1.0000
  I   I26       1.0  0.38327  0.78042  0.95416  1.0000
  I   I27       1.0  0.80153  0.16137  0.02586  1.0000
  I   I28       1.0  0.54380  0.74978  0.01196  1.0000
  I   I29       1.0  0.06796  0.73058  0.52051  1.0000
  I   I30       1.0  0.36312  0.90388  0.76749  1.0000
  I   I31       1.0  0.01706  0.40376  0.56152  1.0000
  I   I32       1.0  0.18487  0.11634  0.73506  1.0000
  I   I33       1.0  0.61331  0.63538  0.36956  1.0000
  I   I34       1.0  0.67877  0.56130  0.72240  1.0000
  I   I35       1.0  0.20026  0.15772  0.13477  1.0000
  I   I36       1.0  0.42384  0.37092  0.11882  1.0000
  I   I37       1.0  0.08595  0.23754  0.56066  1.0000
  I   I38       1.0  0.05230  0.51120  0.16343  1.0000
  I   I39       1.0  0.09412  0.19073  0.59766  1.0000
  I   I40       1.0  0.39310  0.25059  0.44642  1.0000
  I   I41       1.0  0.18195  0.91163  0.55583  1.0000
  I   I42       1.0  0.99579  0.44615  0.86598  1.0000
  I   I43       1.0  0.64508  0.32250  0.71673  1.0000
  I   I44       1.0  0.69452  0.91239  0.97378  1.0000
  I   I45       1.0  0.22489  0.38739  0.18119  1.0000
  I   I46       1.0  0.72351  0.39462  0.61809  1.0000
  I   I47       1.0  0.43257  0.55420  0.61769  1.0000
  I   I48       1.0  0.83839  0.06036  0.30752  1.0000
  I   I49       1.0  0.02433  0.08910  0.46484  1.0000
  I   I50       1.0  0.08331  0.15574  0.29857  1.0000
  I   I51       1.0  0.08214  0.12120  0.39208  1.0000
  I   I52       1.0  0.96797  0.38453  0.44728  1.0000
  I   I53       1.0  0.38429  0.82452  0.32543  1.0000
  I   I54       1.0  0.89268  0.92303  0.02345  1.0000
  I   I55       1.0  0.94180  0.54218  0.52245  1.0000
  I   I56       1.0  0.32667  0.54565  0.41988  1.0000
  I   I57       1.0  0.34919  0.04572  0.77616  1.0000
  I   I58       1.0  0.23151  0.49001  0.67887  1.0000
  I   I59       1.0  0.57051  0.31488  0.94430  1.0000
  I   I60       1.0  0.96709  0.66743  0.02685  1.0000
  I   I61       1.0  0.85425  0.17734  0.51263  1.0000
  I   I62       1.0  0.86536  0.22622  0.68976  1.0000
  I   I63       1.0  0.90973  0.09610  0.55450  1.0000
  I   I64       1.0  0.18427  0.53750  0.69871  1.0000
  I   I65       1.0  0.77132  0.96982  0.80799  1.0000
  I   I66       1.0  0.37725  0.20835  0.95409  1.0000
  I   I67       1.0  0.52163  0.63227  0.53920  1.0000
  I   I68       1.0  0.39904  0.18481  0.62842  1.0000
  I   I69       1.0  0.03516  0.89826  0.01352  1.0000
  I   I70       1.0  0.37588  0.88235  0.21460  1.0000
  I   I71       1.0  0.34523  0.12601  0.34110  1.0000
  I   I72       1.0  0.48217  0.43628  0.72499  1.0000
  I   I73       1.0  0.80414  0.10068  0.00744  1.0000
  I   I74       1.0  0.14663  0.88649  0.97208  1.0000
  I   I75       1.0  0.12099  0.83793  0.98732  1.0000
  I   I76       1.0  0.57259  0.76753  0.92524  1.0000
  I   I77       1.0  0.59977  0.78930  0.98191  1.0000
  I   I78       1.0  0.08072  0.97788  0.63542  1.0000
  I   I79       1.0  0.18913  0.85026  0.51869  1.0000
  I   I80       1.0  0.12709  0.38412  0.80772  1.0000
  I   I81       1.0  0.17171  0.07830  0.78498  1.0000
  I   I82       1.0  0.44964  0.22575  0.24996  1.0000
  I   I83       1.0  0.68843  0.66303  0.68237  1.0000
  I   I84       1.0  0.16510  0.21745  0.18995  1.0000
  I   I85       1.0  0.15284  0.16885  0.56275  1.0000
  I   I86       1.0  0.36048  0.27661  0.96184  1.0000
  I   I87       1.0  0.09135  0.48533  0.25978  1.0000
  I   I88       1.0  0.02421  0.47230  0.78177  1.0000
  I   I89       1.0  0.38110  0.36174  0.36618  1.0000
  I   I90       1.0  0.16328  0.99773  0.67571  1.0000
  I   I91       1.0  0.14615  0.60201  0.98134  1.0000
  I   I92       1.0  0.38065  0.67440  0.92664  1.0000
  I   I93       1.0  0.67117  0.89178  0.07377  1.0000
  I   I94       1.0  0.80413  0.98602  0.30632  1.0000
  I   I95       1.0  0.80583  0.41432  0.28679  1.0000
  I   I96       1.0  0.45880  0.57892  0.75217  1.0000
  I   I97       1.0  0.43451  0.94533  0.49039  1.0000
  I   I98       1.0  0.09334  0.93792  0.51140  1.0000
  I   I99       1.0  0.99696  0.18735  0.24592  1.0000
  I   I100      1.0  0.90142  0.41506  0.42862  1.0000
  I   I101      1.0  0.68468  0.16080  0.93483  1.0000
  I   I102      1.0  0.30996  0.68917  0.24116  1.0000
  I   I103      1.0  0.92116  0.55988  0.63739  1.0000
  I   I104      1.0  0.00110  0.48095  0.49181  1.0000
  I   I105      1.0  0.34199  0.09311  0.67706  1.0000
  I   I106      1.0  0.99546  0.58536  0.98752  1.0000
  I   I107      1.0  0.23374  0.52090  0.59091  1.0000
  I   I108      1.0  0.95366  0.62831  0.04168  1.0000
  I   I109      1.0  0.78238  0.84420  0.59390  1.0000
  I   I110      1.0  0.79809  0.24375  0.59990  1.0000
  I   I111      1.0  0.92639  0.05702  0.62826  1.0000
  I   I112      1.0  0.55780  0.75038  0.70560  1.0000
  I   I113      1.0  0.80073  0.94022  0.68863  1.0000
  I   I114      1.0  0.30882  0.95776  0.59406  1.0000
  I   I115      1.0  0.50527  0.93598  0.25420  1.0000
  I   I116      1.0  0.55188  0.87322  0.27510  1.0000
  I   I117      1.0  0.53752  0.67366  0.58844  1.0000
  I   I118      1.0  0.60247  0.92794  0.45885  1.0000
  I   I119      1.0  0.35980  0.94189  0.18486  1.0000
  I   I120      1.0  0.48994  0.43758  0.61359  1.0000
  I   I121      1.0  0.75216  0.16478  0.98379  1.0000
  I   I122      1.0  0.46339  0.98684  0.06832  1.0000
  I   I123      1.0  0.32860  0.83218  0.88734  1.0000
  I   I124      1.0  0.41380  0.92065  0.83225  1.0000
  I   I125      1.0  0.54649  0.80154  0.03661  1.0000
  I   I126      1.0  0.00747  0.78956  0.58154  1.0000
  I   I127      1.0  0.24434  0.87770  0.56520  1.0000
  I   I128      1.0  0.92756  0.45870  0.43686  1.0000
  I   I129      1.0  0.22087  0.07392  0.86392  1.0000
  I   I130      1.0  0.16407  0.14130  0.16732  1.0000
  I   I131      1.0  0.47647  0.26462  0.15737  1.0000
  I   I132      1.0  0.70421  0.60095  0.57085  1.0000
  I   I133      1.0  0.06948  0.54849  0.23064  1.0000
  I   I134      1.0  0.41542  0.57603  0.16490  1.0000
  I   I135      1.0  0.35846  0.26749  0.83028  1.0000
  I   I136      1.0  0.12697  0.97952  0.56463  1.0000
  I   I137      1.0  0.54526  0.15239  0.12498  1.0000
  I   I138      1.0  0.34372  0.28819  0.37301  1.0000
  I   I139      1.0  0.18785  0.56105  0.88840  1.0000
  I   I140      1.0  0.35105  0.63410  0.96059  1.0000
  I   I141      1.0  0.13532  0.74848  0.21239  1.0000
  I   I142      1.0  0.81475  0.02860  0.33493  1.0000
  I   I143      1.0  0.74300  0.45937  0.30485  1.0000
  I   I144      1.0  0.52542  0.56924  0.76182  1.0000
  I   I145      1.0  0.04101  0.98409  0.53801  1.0000
  I   I146      1.0  0.01257  0.12546  0.22163  1.0000
  I   I147      1.0  0.41256  0.96908  0.37587  1.0000
  I   I148      1.0  0.70065  0.13733  0.81288  1.0000
  I   I149      1.0  0.26220  0.71582  0.15059  1.0000
  I   I150      1.0  0.63128  0.98638  0.15694  1.0000
  I   I151      1.0  0.96484  0.52090  0.39824  1.0000
  I   I152      1.0  0.26575  0.66503  0.44049  1.0000
  I   I153      1.0  0.34742  0.10981  0.57132  1.0000
  I   I154      1.0  0.30830  0.92495  0.20361  1.0000
  I   I155      1.0  0.25923  0.32037  0.59158  1.0000
  I   I156      1.0  0.88884  0.67775  0.03695  1.0000
  I   I157      1.0  0.77117  0.83622  0.68896  1.0000
  I   I158      1.0  0.89125  0.04072  0.55943  1.0000
  I   I159      1.0  0.75376  0.81709  0.53256  1.0000
  I   I160      1.0  0.58030  0.69678  0.64123  1.0000
  I   I161      1.0  0.34284  0.91463  0.50554  1.0000
  I   I162      1.0  0.52227  0.74493  0.62001  1.0000
  I   I163      1.0  0.51059  0.58262  0.54715  1.0000
  I   I164      1.0  0.53136  0.64825  0.69735  1.0000
  I   I165      1.0  0.25557  0.55681  0.43876  1.0000
  I   I166      1.0  0.65656  0.88468  0.41581  1.0000
  I   I167      1.0  0.27549  0.20000  0.32439  1.0000
  I   I168      1.0  0.28629  0.70863  0.75360  1.0000
  I   I169      1.0  0.51376  0.02816  0.05722  1.0000
  I   I170      1.0  0.47636  0.03795  0.20077  1.0000
  I   I171      1.0  0.81343  0.12232  0.11122  1.0000
  I   I172      1.0  0.39895  0.83627  0.77779  1.0000
  I   I173      1.0  0.13270  0.67749  0.52144  1.0000
  I   I174      1.0  0.39963  0.87204  0.86822  1.0000
  I   I175      1.0  0.16006  0.42179  0.86804  1.0000
  I   I176      1.0  0.15029  0.12809  0.83146  1.0000
  I   I177      1.0  0.59029  0.70575  0.40859  1.0000
  I   I178      1.0  0.51965  0.21541  0.22151  1.0000
  I   I179      1.0  0.68396  0.66375  0.56137  1.0000
  I   I180      1.0  0.11941  0.18949  0.19279  1.0000
  I   I181      1.0  0.12984  0.21930  0.49692  1.0000
  I   I182      1.0  0.36078  0.20558  0.84407  1.0000
  I   I183      1.0  0.28862  0.39174  0.23481  1.0000
  I   I184      1.0  0.58686  0.13061  0.03954  1.0000
  I   I185      1.0  0.34264  0.31985  0.48741  1.0000
  I   I186      1.0  0.20862  0.89809  0.66768  1.0000
  I   I187      1.0  0.38213  0.65193  0.04809  1.0000
  I   I188      1.0  0.63883  0.90606  0.95196  1.0000
  I   I189      1.0  0.24417  0.32129  0.17971  1.0000
  I   I190      1.0  0.76607  0.39164  0.29661  1.0000
  I   I191      1.0  0.13163  0.29805  0.12821  1.0000
  I   I192      1.0  0.88648  0.01352  0.31407  1.0000
  I   I193      1.0  0.07886  0.76928  0.53713  1.0000
  I   I194      1.0  0.14546  0.27810  0.25262  1.0000
  I   I195      1.0  0.48267  0.94809  0.42618  1.0000
  I   I196      1.0  0.89922  0.43411  0.52526  1.0000
  I   I197      1.0  0.59500  0.33404  0.63848  1.0000
  I   I198      1.0  0.64538  0.01465  0.04615  1.0000
  I   I199      1.0  0.97241  0.49400  0.66466  1.0000
  I   I200      1.0  0.66221  0.31225  0.19673  1.0000
  I   I201      1.0  0.32731  0.03486  0.65371  1.0000
  I   I202      1.0  0.60831  0.32790  0.85681  1.0000
  I   I203      1.0  0.06548  0.86604  0.92515  1.0000
  I   I204      1.0  0.92298  0.67423  0.13981  1.0000
  I   I205      1.0  0.79551  0.26274  0.70726  1.0000
  I   I206      1.0  0.83506  0.13209  0.72249  1.0000
  I   I207      1.0  0.74958  0.79040  0.63760  1.0000
  I   I208      1.0  0.16362  0.55306  0.60495  1.0000
  I   I209      1.0  0.28137  0.96138  0.49165  1.0000
  I   I210      1.0  0.57371  0.74130  0.54806  1.0000
  I   I211      1.0  0.54066  0.90280  0.15371  1.0000
  I   I212      1.0  0.34050  0.19732  0.70769  1.0000
  I   I213      1.0  0.07896  0.91102  0.98871  1.0000
  I   I214      1.0  0.64755  0.89617  0.53968  1.0000
  I   I215      1.0  0.29990  0.13251  0.42410  1.0000
  I   I216      1.0  0.23246  0.74875  0.70978  1.0000
  I   I217      1.0  0.52246  0.97433  0.02177  1.0000
  I   I218      1.0  0.32417  0.82328  0.00493  1.0000
  I   I219      1.0  0.77907  0.21674  0.04901  1.0000
  I   I220      1.0  0.54198  0.85378  0.98142  1.0000
  I   I221      1.0  0.00887  0.77415  0.46925  1.0000
  I   I222      1.0  0.35856  0.95782  0.79420  1.0000
  I   I223      1.0  0.11730  0.41019  0.92266  1.0000
  I   I224      1.0  0.17658  0.09574  0.64483  1.0000
  I   I225      1.0  0.24943  0.83165  0.55150  1.0000
  I   I226      1.0  0.48740  0.19110  0.17933  1.0000
  I   I227      1.0  0.69377  0.61292  0.69738  1.0000
  I   I228      1.0  0.13276  0.15008  0.06880  1.0000
  I   I229      1.0  0.14774  0.19111  0.67025  1.0000
  I   I230      1.0  0.43844  0.50220  0.18426  1.0000
  I   I231      1.0  0.12432  0.48706  0.16182  1.0000
  I   I232      1.0  0.82267  0.08176  0.74162  1.0000
  I   I233      1.0  0.39587  0.30537  0.47245  1.0000
  I   I234      1.0  0.15215  0.01502  0.57072  1.0000
  I   I235      1.0  0.30013  0.99429  0.15760  1.0000
  I   I236      1.0  0.17594  0.68894  0.18321  1.0000
  I   I237      1.0  0.18585  0.61885  0.91094  1.0000
  I   I238      1.0  0.73189  0.44644  0.65555  1.0000
  I   I239      1.0  0.53212  0.51514  0.74229  1.0000
  I   I240      1.0  0.85814  0.98349  0.38379  1.0000
  I   I241      1.0  0.06832  0.05409  0.57197  1.0000
  I   I242      1.0  0.03884  0.18376  0.35789  1.0000
  I   I243      1.0  0.43150  0.00700  0.45148  1.0000
  I   I244      1.0  0.63529  0.18131  0.86062  1.0000
  I   I245      1.0  0.37186  0.80160  0.43086  1.0000
  I   I246      1.0  0.59240  0.02987  0.06412  1.0000
  I   I247      1.0  0.98823  0.51904  0.59395  1.0000
  I   I248      1.0  0.27185  0.59352  0.37959  1.0000
  I   I249      1.0  0.35657  0.04317  0.55564  1.0000
  I   I250      1.0  0.63764  0.28491  0.95561  1.0000
  I   I251      1.0  0.17832  0.36432  0.62549  1.0000
  I   I252      1.0  0.00774  0.63816  0.94462  1.0000
  I   I253      1.0  0.79428  0.22096  0.49719  1.0000
  I   I254      1.0  0.80117  0.11121  0.63757  1.0000
  I   I255      1.0  0.70657  0.85904  0.65991  1.0000
  I   I256      1.0  0.77764  0.00355  0.68963  1.0000
  I   I257      1.0  0.27930  0.91307  0.57659  1.0000
  I   I258      1.0  0.55389  0.68931  0.74192  1.0000
  I   I259      1.0  0.57010  0.92004  0.24139  1.0000
  I   I260      1.0  0.56132  0.61530  0.62066  1.0000
  I   I261      1.0  0.23665  0.65416  0.34725  1.0000
  I   I262      1.0  0.62420  0.85995  0.48950  1.0000
  I   I263      1.0  0.26240  0.15887  0.33933  1.0000
  I   I264      1.0  0.27589  0.68290  0.65848  1.0000
  I   I265      1.0  0.45890  0.04428  0.08802  1.0000
  I   I266      1.0  0.09627  0.87456  0.06605  1.0000
  I   I267      1.0  0.74918  0.13471  0.08794  1.0000
  I   I268      1.0  0.56133  0.81659  0.88319  1.0000
  I   I269      1.0  0.14244  0.73428  0.52359  1.0000
  I   I270      1.0  0.45191  0.84837  0.81091  1.0000
  I   I271      1.0  0.16766  0.35574  0.89400  1.0000
  I   I272      1.0  0.13386  0.07735  0.69833  1.0000
  I   I273      1.0  0.23965  0.86396  0.45811  1.0000
  I   I274      1.0  0.47678  0.31137  0.10345  1.0000
  I   I275      1.0  0.65194  0.63478  0.64023  1.0000
  I   I276      1.0  0.18987  0.13236  0.05222  1.0000
  I   I277      1.0  0.46915  0.26689  0.25191  1.0000
  I   I278      1.0  0.45668  0.53970  0.25451  1.0000
  I   I279      1.0  0.23546  0.39676  0.30429  1.0000
  I   I280      1.0  0.57091  0.19172  0.07361  1.0000
  I   I281      1.0  0.39544  0.29119  0.38101  1.0000
  I   I282      1.0  0.14975  0.95654  0.68621  1.0000
  I   I283      1.0  0.27674  0.98955  0.22897  1.0000
  I   I284      1.0  0.14711  0.73325  0.08991  1.0000
  I   I285      1.0  0.24269  0.32580  0.29760  1.0000
  I   I286      1.0  0.77011  0.39266  0.70097  1.0000
  I   I287      1.0  0.47884  0.53348  0.69377  1.0000
  I   I288      1.0  0.85908  0.93864  0.29652  1.0000
  I   I289      1.0  0.99593  0.08461  0.56968  1.0000
  I   I290      1.0  0.18049  0.30114  0.19991  1.0000
  I   I291      1.0  0.01629  0.14666  0.33753  1.0000
  I   I292      1.0  0.66074  0.11819  0.90273  1.0000
  I   I293      1.0  0.39696  0.75595  0.34324  1.0000
  I   I294      1.0  0.83911  0.94957  0.09083  1.0000
  I   I295      1.0  0.92670  0.49911  0.60554  1.0000
  I   I296      1.0  0.71320  0.26914  0.13208  1.0000
  I   I297      1.0  0.30342  0.08450  0.72889  1.0000
  I   I298      1.0  0.63867  0.26821  0.68398  1.0000
  I   I299      1.0  0.18449  0.48945  0.62294  1.0000
  I   I300      1.0  0.91473  0.71854  0.04188  1.0000
  I   I301      1.0  0.69343  0.83980  0.55088  1.0000
  I   I302      1.0  0.84900  0.19795  0.61556  1.0000
  I   I303      1.0  0.96189  0.51067  0.87060  1.0000
  I   I304      1.0  0.59997  0.74582  0.62874  1.0000
  I   I305      1.0  0.12456  0.56554  0.70776  1.0000
  I   I306      1.0  0.40735  0.22757  0.90440  1.0000
  I   I307      1.0  0.48429  0.63257  0.61914  1.0000
  I   I308      1.0  0.41339  0.16359  0.73848  1.0000
  I   I309      1.0  0.28819  0.56511  0.52247  1.0000
  I   I310      1.0  0.33678  0.96769  0.28463  1.0000
  I   I311      1.0  0.31289  0.13129  0.25658  1.0000
  I   I312      1.0  0.43718  0.43310  0.64676  1.0000
  I   I313      1.0  0.73489  0.23480  0.96578  1.0000
  I   I314      1.0  0.50465  0.97811  0.13760  1.0000
  I   I315      1.0  0.32666  0.77628  0.91837  1.0000
  I   I316      1.0  0.41962  0.87628  0.71927  1.0000
  I   I317      1.0  0.60975  0.73439  0.03773  1.0000
  I   I318      1.0  0.11511  0.72082  0.43411  1.0000
  I   I319      1.0  0.56043  0.69319  0.32380  1.0000
  I   I320      1.0  0.95873  0.42123  0.53560  1.0000
  I   I321      1.0  0.19771  0.13974  0.82007  1.0000
  I   I322      1.0  0.41946  0.31586  0.07316  1.0000
  I   I323      1.0  0.72750  0.54469  0.65781  1.0000
  I   I324      1.0  0.16647  0.16280  0.25748  1.0000
  I   I325      1.0  0.12788  0.24711  0.59598  1.0000
  I   I326      1.0  0.41651  0.27972  0.90180  1.0000
  I   I327      1.0  0.26934  0.35093  0.24891  1.0000
  I   I328      1.0  0.01950  0.48373  0.91191  1.0000
  I   I329      1.0  0.32930  0.34087  0.38825  1.0000
  I   I330      1.0  0.19957  0.95051  0.60645  1.0000
  I   I331      1.0  0.18820  0.36920  0.22251  1.0000
  I   I332      1.0  0.66510  0.30290  0.60844  1.0000
  I   I333      1.0  0.69641  0.84917  0.98757  1.0000
  I   I334      1.0  0.84742  0.05259  0.41404  1.0000
  I   I335      1.0  0.75722  0.43534  0.18050  1.0000
  I   I336      1.0  0.48967  0.58402  0.66511  1.0000
  I   I337      1.0  0.06347  0.92809  0.60658  1.0000
  I   I338      1.0  0.10697  0.33983  0.25630  1.0000
  I   I339      1.0  0.05169  0.14941  0.19513  1.0000
  I   I340      1.0  0.00759  0.41357  0.44078  1.0000
  I   I341      1.0  0.30678  0.64441  0.17457  1.0000
  I   I342      1.0  0.87318  0.87770  0.06184  1.0000
  I   I343      1.0  0.98950  0.54739  0.46626  1.0000
  I   I344      1.0  0.69616  0.33680  0.12236  1.0000
  I   I345      1.0  0.38268  0.03524  0.66464  1.0000
  I   I346      1.0  0.32793  0.91972  0.30804  1.0000
  I   I347      1.0  0.62661  0.25780  0.86929  1.0000
  I   I348      1.0  0.01828  0.62091  0.04902  1.0000
  I   I349      1.0  0.71949  0.86973  0.56518  1.0000
  I   I350      1.0  0.80360  0.18043  0.59322  1.0000
  I   I351      1.0  0.87065  0.06180  0.66682  1.0000
  I   I352      1.0  0.50259  0.74047  0.71615  1.0000
  I   I353      1.0  0.72643  0.98278  0.71239  1.0000
  I   I354      1.0  0.35886  0.31760  0.87204  1.0000
  I   I355      1.0  0.54917  0.56245  0.63058  1.0000
  I   I356      1.0  0.48228  0.68980  0.59758  1.0000
  I   I357      1.0  0.17526  0.83206  0.02749  1.0000
  I   I358      1.0  0.29006  0.74337  0.65278  1.0000
  I   I359      1.0  0.23682  0.19972  0.23160  1.0000
  I   I360      1.0  0.44133  0.49907  0.70098  1.0000
  I   I361      1.0  0.79346  0.20805  0.93787  1.0000
  I   I362      1.0  0.53931  0.00119  0.17662  1.0000
  I   I363      1.0  0.14051  0.88551  0.08782  1.0000
  I   I364      1.0  0.34555  0.93494  0.89428  1.0000
  I   I365      1.0  0.51648  0.81462  0.94318  1.0000
  I   I366      1.0  0.03386  0.81737  0.51297  1.0000
  I   I367      1.0  0.54682  0.66966  0.41210  1.0000
  I   I368      1.0  0.03669  0.35753  0.48755  1.0000
  I   I369      1.0  0.12278  0.13542  0.68430  1.0000
  I   I370      1.0  0.43289  0.32522  0.20651  1.0000
  I   I371      1.0  0.66185  0.58092  0.62254  1.0000
  I   I372      1.0  0.14319  0.20327  0.06460  1.0000
  I   I373      1.0  0.09410  0.19464  0.45871  1.0000
  I   I374      1.0  0.39185  0.54914  0.24402  1.0000
  I   I375      1.0  0.22941  0.43775  0.20272  1.0000
  I   I376      1.0  0.60439  0.15572  0.16332  1.0000
  I   I377      1.0  0.34811  0.36840  0.46144  1.0000
  I   I378      1.0  0.14872  0.90960  0.65174  1.0000
  I   I379      1.0  0.13579  0.62905  0.85861  1.0000
  I   I380      1.0  0.32393  0.69632  0.99125  1.0000
  I   I381      1.0  0.18665  0.75201  0.15303  1.0000
  I   I382      1.0  0.84492  0.99827  0.24306  1.0000
  I   I383      1.0  0.69209  0.42609  0.71777  1.0000
  I   I384      1.0  0.44182  0.49397  0.59184  1.0000
