data_image0
_chemical_formula_structural       Ti96I384
_chemical_formula_sum              "Ti96 I384"
_cell_length_a       77.1686
_cell_length_b       77.2824
_cell_length_c       37.7694
_cell_angle_alpha    88.7757
_cell_angle_beta     88.7757
_cell_angle_gamma    62.1586

_space_group_name_H-M_alt    "P 1"
_space_group_IT_number       1

loop_
  _space_group_symop_operation_xyz
  'x, y, z'

loop_
  _atom_site_type_symbol
  _atom_site_label
  _atom_site_symmetry_multiplicity
  _atom_site_fract_x
  _atom_site_fract_y
  _atom_site_fract_z
  _atom_site_occupancy
  Ti  Ti1       1.0  0.94960  0.69814  0.32120  1.0000
  Ti  Ti2       1.0  0.53070  0.82719  0.64887  1.0000
  Ti  Ti3       1.0  0.06213  0.17913  0.50834  1.0000
  Ti  Ti4       1.0  0.22723  0.14890  0.92064  1.0000
  Ti  Ti5       1.0  0.51748  0.05670  0.50432  1.0000
  Ti  Ti6       1.0  0.64745  0.60454  0.25698  1.0000
  Ti  Ti7       1.0  0.76577  0.83409  0.26499  1.0000
  Ti  Ti8       1.0  0.98743  0.12387  0.76601  1.0000
  Ti  Ti9       1.0  0.09281  0.30227  0.77125  1.0000
  Ti  Ti10      1.0  0.72431  0.58511  0.45440  1.0000
  Ti  Ti11      1.0  0.96105  0.04228  0.97818  1.0000
  Ti  Ti12      1.0  0.48552  0.95217  0.69625  1.0000
  Ti  Ti13      1.0  0.91111  0.56760  0.80166  1.0000
  Ti  Ti14      1.0  0.27183  0.12449  0.84234  1.0000
  Ti  Ti15      1.0  0.92569  0.19929  0.41577  1.0000
  Ti  Ti16      1.0  0.07621  0.02681  0.93250  1.0000
  Ti  Ti17      1.0  0.34136  0.32135  0.24577  1.0000
  Ti  Ti18      1.0  0.76533  0.25603  0.89817  1.0000
  Ti  Ti19      1.0  0.44305  0.26154  0.66354  1.0000
  Ti  Ti20      1.0  0.06518  0.67269  0.62622  1.0000
  Ti  Ti21      1.0  0.95172  0.16746  0.80354  1.0000
  Ti  Ti22      1.0  0.52586  0.55537  0.39765  1.0000
  Ti  Ti23      1.0  0.26569  0.41663  0.64118  1.0000
  Ti  Ti24      1.0  0.46327  0.30092  0.43663  1.0000
  Ti  Ti25      1.0  0.73077  0.34511  0.15739  1.0000
  Ti  Ti26      1.0  0.13618  0.75104  0.31583  1.0000
  Ti  Ti27      1.0  0.74327  0.78545  0.82792  1.0000
  Ti  Ti28      1.0  0.36460  0.93423  0.18527  1.0000
  Ti  Ti29      1.0  0.98428  0.03233  0.70405  1.0000
  Ti  Ti30      1.0  0.18833  0.41164  0.17325  1.0000
  Ti  Ti31      1.0  0.84239  0.15417  0.31206  1.0000
  Ti  Ti32      1.0  0.47873  0.64626  0.38563  1.0000
  Ti  Ti33      1.0  0.54857  0.27750  0.24949  1.0000
  Ti  Ti34      1.0  0.62869  0.38986  0.80875  1.0000
  Ti  Ti35      1.0  0.68878  0.88190  0.79892  1.0000
  Ti  Ti36      1.0  0.42689  0.18946  0.33291  1.0000
  Ti  Ti37      1.0  0.33992  0.27043  0.76216  1.0000
  Ti  Ti38      1.0  0.40002  0.34975  0.94150  1.0000
  Ti  Ti39      1.0  0.78792  0.53064  0.45886  1.0000
  Ti  Ti40      1.0  0.69920  0.58007  0.56930  1.0000
  Ti  Ti41      1.0  0.08616  0.64672  0.85795  1.0000
  Ti  Ti42      1.0  0.87419  0.65943  0.51223  1.0000
  Ti  Ti43      1.0  0.17683  0.87238  0.29348  1.0000
  Ti  Ti44      1.0  0.97782  0.26469  0.77830  1.0000
  Ti  Ti45      1.0  0.82405  0.53706  0.22083  1.0000
  Ti  Ti46      1.0  0.82745  0.30173  0.87740  1.0000
  Ti  Ti47      1.0  0.83547  0.13538  0.89426  1.0000
  Ti  Ti48      1.0  0.85158  0.94000  0.33820  1.0000
  Ti  Ti49      1.0  0.23204  0.88672  0.26856  1.0000
  Ti  Ti50      1.0  0.03338  0.56166  0.22401  1.0000
  Ti  Ti51      1.0  0.56182  0.75809  0.63116  1.0000
  Ti  Ti52      1.0  0.41760  0.60747  0.53493  1.0000
  Ti  Ti53      1.0  0.33620  0.69234  0.63413  1.0000
  Ti  Ti54      1.0  0.33862  0.76733  0.74500  1.0000
  Ti  Ti55      1.0  0.57726  0.64893  0.67499  1.0000
  Ti  Ti56      1.0  0.73630  0.01646  0.72876  1.0000
  Ti  Ti57      1.0  0.09829  0.33393  0.74002  1.0000
  Ti  Ti58      1.0  0.41124  0.24903  0.07738  1.0000
  Ti  Ti59      1.0  0.11531  0.97581  0.96610  1.0000
  Ti  Ti60      1.0  0.91058  0.20336  0.06371  1.0000
  Ti  Ti61      1.0  0.53883  0.17087  0.13266  1.0000
  Ti  Ti62      1.0  0.86737  0.61090  0.81047  1.0000
  Ti  Ti63      1.0  0.09751  0.67907  0.62674  1.0000
  Ti  Ti64      1.0  0.73992  0.28447  0.93252  1.0000
  Ti  Ti65      1.0  0.03427  0.51774  0.94521  1.0000
  Ti  Ti66      1.0  0.33838  0.99391  0.17831  1.0000
  Ti  Ti67      1.0  0.27177  0.49659  0.02746  1.0000
  Ti  Ti68      1.0  0.80742  0.23602  0.72897  1.0000
  Ti  Ti69      1.0  0.13629  0.70909  0.38141  1.0000
  Ti  Ti70      1.0  0.21408  0.97004  0.51643  1.0000
  Ti  Ti71      1.0  0.26535  0.66494  0.21179  1.0000
  Ti  Ti72      1.0  0.86428  0.10957  0.82888  1.0000
  Ti  Ti73      1.0  0.63536  0.34609  0.36268  1.0000
  Ti  Ti74      1.0  0.74800  0.33284  0.26708  1.0000
  Ti  Ti75      1.0  0.84050  0.69754  0.26339  1.0000
  Ti  Ti76      1.0  0.76226  0.03736  0.32988  1.0000
  Ti  Ti77      1.0  0.90626  0.20966  0.33195  1.0000
  Ti  Ti78      1.0  0.99269  0.98774  0.65379  1.0000
  Ti  Ti79      1.0  0.47291  0.90847  0.40636  1.0000
  Ti  Ti80      1.0  0.76685  0.64389  0.51336  1.0000
  Ti  Ti81      1.0  0.23500  0.40276  0.68811  1.0000
  Ti  Ti82      1.0  0.69883  0.49845  0.79121  1.0000
  Ti  Ti83      1.0  0.82817  0.50147  0.27109  1.0000
  Ti  Ti84      1.0  0.35321  0.22720  0.40232  1.0000
  Ti  Ti85      1.0  0.30595  0.27550  0.76816  1.0000
  Ti  Ti86      1.0  0.73860  0.88546  0.28731  1.0000
  Ti  Ti87      1.0  0.66204  0.71065  0.23414  1.0000
  Ti  Ti88      1.0  0.11873  0.95853  0.51042  1.0000
  Ti  Ti89      1.0  0.01079  0.47832  0.66748  1.0000
  Ti  Ti90      1.0  0.28594  0.24603  0.01056  1.0000
  Ti  Ti91      1.0  0.66112  0.32413  0.65464  1.0000
  Ti  Ti92      1.0  0.36418  0.59610  0.11968  1.0000
  Ti  Ti93      1.0  0.32366  0.57571  0.78983  1.0000
  Ti  Ti94      1.0  0.87928  0.92893  0.27808  1.0000
  Ti  Ti95      1.0  0.60872  0.08734  0.60640  1.0000
  Ti  Ti96      1.0  0.50874  0.46258  0.41786  1.0000
  I   I1        1.0  0.85648  0.14368  0.80620  1.0000
  I   I2        1.0  0.55690  0.75005  0.69592  1.0000
  I   I3        1.0  0.24641  0.85395  0.23215  1.0000
  I   I4        1.0  0.33729  0.68582  0.55971  1.0000
  I   I5        1.0  0.66558  0.62682  0.26123  1.0000
  I   I6        1.0  0.34354  0.76531  0.67530  1.0000
  I   I7        1.0  0.96430  0.17762  0.85855  1.0000
  I   I8        1.0  0.72303  0.01436  0.78890  1.0000
  I   I9        1.0  0.13255  0.29129  0.75143  1.0000
  I   I10       1.0  0.73449  0.55410  0.57367  1.0000
  I   I11       1.0  0.99391  0.03424  0.99978  1.0000
  I   I12       1.0  0.53101  0.06309  0.56248  1.0000
  I   I13       1.0  0.83473  0.63023  0.77675  1.0000
  I   I14       1.0  0.14123  0.65352  0.63592  1.0000
  I   I15       1.0  0.93372  0.21921  0.34182  1.0000
  I   I16       1.0  0.68864  0.60028  0.62836  1.0000
  I   I17       1.0  0.38634  0.90473  0.14422  1.0000
  I   I18       1.0  0.74294  0.28277  0.00013  1.0000
  I   I19       1.0  0.09270  0.66273  0.69035  1.0000
  I   I20       1.0  0.96114  0.02360  0.92512  1.0000
  I   I21       1.0  0.02400  0.11972  0.76557  1.0000
  I   I22       1.0  0.23723  0.40211  0.60773  1.0000
  I   I23       1.0  0.15862  0.94578  0.50283  1.0000
  I   I24       1.0  0.17573  0.99396  0.49759  1.0000
  I   I25       1.0  0.72288  0.37894  0.13676  1.0000
  I   I26       1.0  0.83000  0.68515  0.21087  1.0000
  I   I27       1.0  0.66960  0.87082  0.84594  1.0000
  I   I28       1.0  0.38435  0.92605  0.24022  1.0000
  I   I29       1.0  0.02176  0.00491  0.71863  1.0000
  I   I30       1.0  0.19390  0.37822  0.15778  1.0000
  I   I31       1.0  0.73860  0.67546  0.48867  1.0000
  I   I32       1.0  0.21303  0.38560  0.65093  1.0000
  I   I33       1.0  0.46756  0.93468  0.34680  1.0000
  I   I34       1.0  0.72756  0.86249  0.80463  1.0000
  I   I35       1.0  0.35877  0.19743  0.36129  1.0000
  I   I36       1.0  0.62779  0.35833  0.78767  1.0000
  I   I37       1.0  0.27669  0.30505  0.73619  1.0000
  I   I38       1.0  0.82281  0.52633  0.45431  1.0000
  I   I39       1.0  0.36818  0.28131  0.76017  1.0000
  I   I40       1.0  0.97907  0.28804  0.82313  1.0000
  I   I41       1.0  0.99784  0.56677  0.24656  1.0000
  I   I42       1.0  0.68143  0.56025  0.58427  1.0000
  I   I43       1.0  0.40211  0.26945  0.13864  1.0000
  I   I44       1.0  0.98679  0.25731  0.70897  1.0000
  I   I45       1.0  0.86215  0.50888  0.21648  1.0000
  I   I46       1.0  0.57877  0.10336  0.56142  1.0000
  I   I47       1.0  0.82219  0.13884  0.96248  1.0000
  I   I48       1.0  0.84118  0.94393  0.26324  1.0000
  I   I49       1.0  0.19013  0.90133  0.25488  1.0000
  I   I50       1.0  0.50029  0.84172  0.61561  1.0000
  I   I51       1.0  0.54666  0.79272  0.57842  1.0000
  I   I52       1.0  0.77346  0.60706  0.52113  1.0000
  I   I53       1.0  0.37188  0.68457  0.63046  1.0000
  I   I54       1.0  0.37069  0.77277  0.75537  1.0000
  I   I55       1.0  0.75372  0.90065  0.33396  1.0000
  I   I56       1.0  0.95020  0.14451  0.73967  1.0000
  I   I57       1.0  0.59046  0.09873  0.66658  1.0000
  I   I58       1.0  0.76244  0.57000  0.43051  1.0000
  I   I59       1.0  0.09874  0.98337  0.02764  1.0000
  I   I60       1.0  0.89516  0.22489  0.12015  1.0000
  I   I61       1.0  0.90578  0.53996  0.83686  1.0000
  I   I62       1.0  0.87079  0.64227  0.81785  1.0000
  I   I63       1.0  0.03614  0.68935  0.67167  1.0000
  I   I64       1.0  0.04549  0.02607  0.95309  1.0000
  I   I65       1.0  0.01096  0.52526  0.99908  1.0000
  I   I66       1.0  0.34528  0.91500  0.19504  1.0000
  I   I67       1.0  0.43576  0.24399  0.71930  1.0000
  I   I68       1.0  0.05466  0.64261  0.65041  1.0000
  I   I69       1.0  0.15634  0.70778  0.31223  1.0000
  I   I70       1.0  0.22019  0.00156  0.51776  1.0000
  I   I71       1.0  0.25385  0.44922  0.60398  1.0000
  I   I72       1.0  0.80335  0.13955  0.86486  1.0000
  I   I73       1.0  0.71743  0.81139  0.78917  1.0000
  I   I74       1.0  0.13505  0.75350  0.24438  1.0000
  I   I75       1.0  0.11936  0.78640  0.33350  1.0000
  I   I76       1.0  0.92881  0.17523  0.32049  1.0000
  I   I77       1.0  0.95996  0.17507  0.39168  1.0000
  I   I78       1.0  0.85626  0.12983  0.26261  1.0000
  I   I79       1.0  0.54092  0.24886  0.27515  1.0000
  I   I80       1.0  0.98067  0.68629  0.27578  1.0000
  I   I81       1.0  0.50723  0.64376  0.42470  1.0000
  I   I82       1.0  0.71842  0.51195  0.74820  1.0000
  I   I83       1.0  0.85608  0.46958  0.29168  1.0000
  I   I84       1.0  0.43659  0.17655  0.40135  1.0000
  I   I85       1.0  0.31808  0.24719  0.72650  1.0000
  I   I86       1.0  0.32997  0.96638  0.13544  1.0000
  I   I87       1.0  0.73940  0.54081  0.46025  1.0000
  I   I88       1.0  0.68758  0.59416  0.43848  1.0000
  I   I89       1.0  0.62503  0.42735  0.79303  1.0000
  I   I90       1.0  0.06405  0.53405  0.25355  1.0000
  I   I91       1.0  0.67196  0.30818  0.71979  1.0000
  I   I92       1.0  0.37053  0.61326  0.17459  1.0000
  I   I93       1.0  0.94046  0.27971  0.76980  1.0000
  I   I94       1.0  0.86590  0.90314  0.31525  1.0000
  I   I95       1.0  0.82282  0.26844  0.85927  1.0000
  I   I96       1.0  0.55901  0.55663  0.37818  1.0000
  I   I97       1.0  0.09001  0.14856  0.46564  1.0000
  I   I98       1.0  0.92307  0.70859  0.27425  1.0000
  I   I99       1.0  0.56338  0.72864  0.59462  1.0000
  I   I100      1.0  0.27311  0.14934  0.89240  1.0000
  I   I101      1.0  0.10834  0.98719  0.55165  1.0000
  I   I102      1.0  0.51477  0.06934  0.43827  1.0000
  I   I103      1.0  0.72543  0.91290  0.23738  1.0000
  I   I104      1.0  0.56334  0.63937  0.61354  1.0000
  I   I105      1.0  0.08385  0.31450  0.70177  1.0000
  I   I106      1.0  0.47922  0.98741  0.67908  1.0000
  I   I107      1.0  0.71865  0.61167  0.40247  1.0000
  I   I108      1.0  0.52562  0.93317  0.70367  1.0000
  I   I109      1.0  0.92552  0.23256  0.42965  1.0000
  I   I110      1.0  0.89888  0.58973  0.85676  1.0000
  I   I111      1.0  0.06795  0.70291  0.57867  1.0000
  I   I112      1.0  0.72242  0.32485  0.91546  1.0000
  I   I113      1.0  0.07053  0.49496  0.92184  1.0000
  I   I114      1.0  0.37322  0.29042  0.26241  1.0000
  I   I115      1.0  0.23442  0.50546  0.03745  1.0000
  I   I116      1.0  0.27377  0.50285  0.95919  1.0000
  I   I117      1.0  0.80332  0.27239  0.73600  1.0000
  I   I118      1.0  0.48972  0.49020  0.37391  1.0000
  I   I119      1.0  0.29028  0.51502  0.05803  1.0000
  I   I120      1.0  0.82791  0.17174  0.87928  1.0000
  I   I121      1.0  0.61684  0.32417  0.36882  1.0000
  I   I122      1.0  0.74325  0.33732  0.08708  1.0000
  I   I123      1.0  0.81718  0.73186  0.24543  1.0000
  I   I124      1.0  0.21985  0.41013  0.13230  1.0000
  I   I125      1.0  0.79147  0.04464  0.34415  1.0000
  I   I126      1.0  0.02764  0.95997  0.65704  1.0000
  I   I127      1.0  0.51923  0.30866  0.27802  1.0000
  I   I128      1.0  0.25420  0.11844  0.95091  1.0000
  I   I129      1.0  0.21204  0.40800  0.75226  1.0000
  I   I130      1.0  0.38708  0.22594  0.37023  1.0000
  I   I131      1.0  0.68871  0.47197  0.78584  1.0000
  I   I132      1.0  0.68036  0.87398  0.73924  1.0000
  I   I133      1.0  0.78618  0.52846  0.52995  1.0000
  I   I134      1.0  0.38530  0.36788  0.88315  1.0000
  I   I135      1.0  0.33751  0.02339  0.21650  1.0000
  I   I136      1.0  0.89055  0.62131  0.52856  1.0000
  I   I137      1.0  0.40830  0.63166  0.48121  1.0000
  I   I138      1.0  0.00091  0.45655  0.70875  1.0000
  I   I139      1.0  0.68925  0.33413  0.64241  1.0000
  I   I140      1.0  0.37926  0.60640  0.06476  1.0000
  I   I141      1.0  0.31812  0.60072  0.72977  1.0000
  I   I142      1.0  0.90981  0.90524  0.32800  1.0000
  I   I143      1.0  0.09190  0.16583  0.55676  1.0000
  I   I144      1.0  0.52064  0.57288  0.45399  1.0000
  I   I145      1.0  0.97170  0.66788  0.36468  1.0000
  I   I146      1.0  0.54999  0.84676  0.64548  1.0000
  I   I147      1.0  0.03672  0.17531  0.46407  1.0000
  I   I148      1.0  0.41263  0.62583  0.59844  1.0000
  I   I149      1.0  0.48684  0.05106  0.52138  1.0000
  I   I150      1.0  0.62072  0.61330  0.31215  1.0000
  I   I151      1.0  0.57760  0.64666  0.74576  1.0000
  I   I152      1.0  0.98324  0.13268  0.84059  1.0000
  I   I153      1.0  0.09611  0.26909  0.78494  1.0000
  I   I154      1.0  0.17652  0.83820  0.27255  1.0000
  I   I155      1.0  0.94345  0.03389  0.02628  1.0000
  I   I156      1.0  0.93121  0.16911  0.08138  1.0000
  I   I157      1.0  0.90406  0.22259  0.26265  1.0000
  I   I158      1.0  0.11821  0.69549  0.65786  1.0000
  I   I159      1.0  0.51143  0.16371  0.16019  1.0000
  I   I160      1.0  0.71984  0.26269  0.92560  1.0000
  I   I161      1.0  0.31942  0.31453  0.20346  1.0000
  I   I162      1.0  0.77105  0.23633  0.95596  1.0000
  I   I163      1.0  0.47714  0.22838  0.65693  1.0000
  I   I164      1.0  0.83072  0.22315  0.67192  1.0000
  I   I165      1.0  0.99603  0.08840  0.78150  1.0000
  I   I166      1.0  0.48990  0.45059  0.46271  1.0000
  I   I167      1.0  0.26007  0.43166  0.70611  1.0000
  I   I168      1.0  0.48485  0.26470  0.40575  1.0000
  I   I169      1.0  0.78274  0.33580  0.27571  1.0000
  I   I170      1.0  0.71657  0.36036  0.22284  1.0000
  I   I171      1.0  0.73940  0.75456  0.83249  1.0000
  I   I172      1.0  0.76923  0.00111  0.34209  1.0000
  I   I173      1.0  0.97202  0.00525  0.71741  1.0000
  I   I174      1.0  0.16027  0.43285  0.12919  1.0000
  I   I175      1.0  0.86538  0.15277  0.36862  1.0000
  I   I176      1.0  0.47191  0.66725  0.32413  1.0000
  I   I177      1.0  0.45486  0.94243  0.43644  1.0000
  I   I178      1.0  0.66455  0.53015  0.79634  1.0000
  I   I179      1.0  0.80354  0.50661  0.32297  1.0000
  I   I180      1.0  0.45079  0.20390  0.33494  1.0000
  I   I181      1.0  0.32662  0.28571  0.82513  1.0000
  I   I182      1.0  0.74330  0.85588  0.20212  1.0000
  I   I183      1.0  0.66166  0.74380  0.25410  1.0000
  I   I184      1.0  0.08438  0.97242  0.47367  1.0000
  I   I185      1.0  0.02760  0.48984  0.71591  1.0000
  I   I186      1.0  0.89084  0.66855  0.56572  1.0000
  I   I187      1.0  0.37650  0.55899  0.12099  1.0000
  I   I188      1.0  0.98601  0.22969  0.80300  1.0000
  I   I189      1.0  0.64363  0.72457  0.17627  1.0000
  I   I190      1.0  0.79354  0.33414  0.89065  1.0000
  I   I191      1.0  0.30112  0.21512  0.96777  1.0000
  I   I192      1.0  0.04980  0.21333  0.53102  1.0000
  I   I193      1.0  0.97131  0.05376  0.76104  1.0000
  I   I194      1.0  0.04997  0.54493  0.15622  1.0000
  I   I195      1.0  0.06270  0.14804  0.54800  1.0000
  I   I196      1.0  0.19698  0.14150  0.91598  1.0000
  I   I197      1.0  0.38474  0.23563  0.06542  1.0000
  I   I198      1.0  0.62445  0.61322  0.20368  1.0000
  I   I199      1.0  0.49819  0.61318  0.35977  1.0000
  I   I200      1.0  0.75952  0.97983  0.71047  1.0000
  I   I201      1.0  0.09993  0.32825  0.81672  1.0000
  I   I202      1.0  0.11223  0.00673  0.90996  1.0000
  I   I203      1.0  0.10336  0.74941  0.33218  1.0000
  I   I204      1.0  0.47370  0.95224  0.76082  1.0000
  I   I205      1.0  0.94598  0.54908  0.77304  1.0000
  I   I206      1.0  0.21215  0.18125  0.95511  1.0000
  I   I207      1.0  0.87083  0.24430  0.33338  1.0000
  I   I208      1.0  0.08750  0.97928  0.91371  1.0000
  I   I209      1.0  0.35208  0.34835  0.22410  1.0000
  I   I210      1.0  0.44216  0.90053  0.38237  1.0000
  I   I211      1.0  0.21464  0.95126  0.45812  1.0000
  I   I212      1.0  0.10492  0.64301  0.59559  1.0000
  I   I213      1.0  0.16972  0.68299  0.40222  1.0000
  I   I214      1.0  0.54235  0.51981  0.42334  1.0000
  I   I215      1.0  0.30337  0.40392  0.64748  1.0000
  I   I216      1.0  0.28229  0.59590  0.81666  1.0000
  I   I217      1.0  0.69979  0.33979  0.14900  1.0000
  I   I218      1.0  0.87522  0.69670  0.27302  1.0000
  I   I219      1.0  0.64853  0.34381  0.42301  1.0000
  I   I220      1.0  0.92532  0.17762  0.46981  1.0000
  I   I221      1.0  0.00606  0.99178  0.58591  1.0000
  I   I222      1.0  0.73512  0.07553  0.33228  1.0000
  I   I223      1.0  0.82190  0.18229  0.26327  1.0000
  I   I224      1.0  0.44509  0.66667  0.42555  1.0000
  I   I225      1.0  0.57891  0.28578  0.26245  1.0000
  I   I226      1.0  0.73631  0.46598  0.80735  1.0000
  I   I227      1.0  0.67655  0.91753  0.80765  1.0000
  I   I228      1.0  0.44660  0.15650  0.30616  1.0000
  I   I229      1.0  0.32158  0.32274  0.31037  1.0000
  I   I230      1.0  0.43247  0.32299  0.91623  1.0000
  I   I231      1.0  0.80058  0.49374  0.45906  1.0000
  I   I232      1.0  0.30445  0.09318  0.83853  1.0000
  I   I233      1.0  0.09090  0.62392  0.80285  1.0000
  I   I234      1.0  0.25085  0.27894  0.00413  1.0000
  I   I235      1.0  0.16055  0.87494  0.35217  1.0000
  I   I236      1.0  0.34887  0.57333  0.83157  1.0000
  I   I237      1.0  0.63343  0.34518  0.61355  1.0000
  I   I238      1.0  0.60859  0.05224  0.58203  1.0000
  I   I239      1.0  0.54083  0.45608  0.44922  1.0000
  I   I240      1.0  0.82194  0.94212  0.37239  1.0000
  I   I241      1.0  0.94013  0.72863  0.35616  1.0000
  I   I242      1.0  0.51171  0.83656  0.70848  1.0000
  I   I243      1.0  0.84267  0.31656  0.91831  1.0000
  I   I244      1.0  0.12065  0.92411  0.52723  1.0000
  I   I245      1.0  0.32892  0.72853  0.62620  1.0000
  I   I246      1.0  0.66751  0.56581  0.25528  1.0000
  I   I247      1.0  0.74869  0.84310  0.32681  1.0000
  I   I248      1.0  0.92085  0.16124  0.82308  1.0000
  I   I249      1.0  0.05313  0.32738  0.78661  1.0000
  I   I250      1.0  0.06376  0.06296  0.96092  1.0000
  I   I251      1.0  0.94583  0.07838  0.96261  1.0000
  I   I252      1.0  0.92937  0.21786  0.02554  1.0000
  I   I253      1.0  0.91055  0.59744  0.75674  1.0000
  I   I254      1.0  0.26292  0.14010  0.78489  1.0000
  I   I255      1.0  0.56464  0.13408  0.11140  1.0000
  I   I256      1.0  0.03469  0.54788  0.91060  1.0000
  I   I257      1.0  0.36201  0.23847  0.80369  1.0000
  I   I258      1.0  0.79468  0.23100  0.86397  1.0000
  I   I259      1.0  0.29417  0.46040  0.03669  1.0000
  I   I260      1.0  0.77788  0.23033  0.71548  1.0000
  I   I261      1.0  0.94300  0.20421  0.78005  1.0000
  I   I262      1.0  0.49829  0.56020  0.35499  1.0000
  I   I263      1.0  0.24087  0.65244  0.18105  1.0000
  I   I264      1.0  0.40275  0.20748  0.27516  1.0000
  I   I265      1.0  0.76336  0.31568  0.19680  1.0000
  I   I266      1.0  0.15046  0.73959  0.39026  1.0000
  I   I267      1.0  0.60726  0.38084  0.37047  1.0000
  I   I268      1.0  0.33032  0.98949  0.25372  1.0000
  I   I269      1.0  0.96697  0.97794  0.64265  1.0000
  I   I270      1.0  0.33504  0.01109  0.11469  1.0000
  I   I271      1.0  0.81967  0.15475  0.36434  1.0000
  I   I272      1.0  0.20869  0.43982  0.69629  1.0000
  I   I273      1.0  0.55442  0.26467  0.18205  1.0000
  I   I274      1.0  0.05027  0.66912  0.86230  1.0000
  I   I275      1.0  0.77943  0.76757  0.79495  1.0000
  I   I276      1.0  0.31758  0.23560  0.41215  1.0000
  I   I277      1.0  0.70897  0.50905  0.85362  1.0000
  I   I278      1.0  0.38511  0.32360  0.97399  1.0000
  I   I279      1.0  0.82550  0.52051  0.14914  1.0000
  I   I280      1.0  0.39422  0.59589  0.51764  1.0000
  I   I281      1.0  0.09525  0.64243  0.92706  1.0000
  I   I282      1.0  0.84402  0.68202  0.47400  1.0000
  I   I283      1.0  0.21358  0.86571  0.31737  1.0000
  I   I284      1.0  0.48533  0.31179  0.40421  1.0000
  I   I285      1.0  0.69720  0.68535  0.25329  1.0000
  I   I286      1.0  0.64578  0.07496  0.62395  1.0000
  I   I287      1.0  0.84304  0.10503  0.77963  1.0000
  I   I288      1.0  0.86834  0.96482  0.29885  1.0000
  I   I289      1.0  0.22003  0.92600  0.24935  1.0000
  I   I290      1.0  0.28891  0.23877  0.07649  1.0000
  I   I291      1.0  0.59849  0.74755  0.62027  1.0000
  I   I292      1.0  0.45454  0.57846  0.52037  1.0000
  I   I293      1.0  0.33706  0.68790  0.69995  1.0000
  I   I294      1.0  0.34330  0.73757  0.78495  1.0000
  I   I295      1.0  0.80149  0.80516  0.28355  1.0000
  I   I296      1.0  0.70673  0.03370  0.68717  1.0000
  I   I297      1.0  0.07159  0.36956  0.75747  1.0000
  I   I298      1.0  0.44156  0.22185  0.10437  1.0000
  I   I299      1.0  0.06430  0.03019  0.86610  1.0000
  I   I300      1.0  0.33643  0.54154  0.77238  1.0000
  I   I301      1.0  0.55482  0.17491  0.19334  1.0000
  I   I302      1.0  0.87599  0.57593  0.76757  1.0000
  I   I303      1.0  0.65986  0.60288  0.54147  1.0000
  I   I304      1.0  0.77865  0.27677  0.92902  1.0000
  I   I305      1.0  0.15021  0.96877  0.98212  1.0000
  I   I306      1.0  0.75399  0.80977  0.22874  1.0000
  I   I307      1.0  0.40571  0.28378  0.64005  1.0000
  I   I308      1.0  0.05363  0.65402  0.57601  1.0000
  I   I309      1.0  0.98260  0.16445  0.75759  1.0000
  I   I310      1.0  0.14497  0.90094  0.25139  1.0000
  I   I311      1.0  0.29256  0.63914  0.25126  1.0000
  I   I312      1.0  0.84614  0.09401  0.87851  1.0000
  I   I313      1.0  0.66267  0.34486  0.31845  1.0000
  I   I314      1.0  0.73505  0.34124  0.33540  1.0000
  I   I315      1.0  0.83306  0.68321  0.32031  1.0000
  I   I316      1.0  0.76151  0.03804  0.25225  1.0000
  I   I317      1.0  0.37650  0.96714  0.17312  1.0000
  I   I318      1.0  0.99928  0.05577  0.67324  1.0000
  I   I319      1.0  0.50743  0.90196  0.37928  1.0000
  I   I320      1.0  0.21608  0.17224  0.85874  1.0000
  I   I321      1.0  0.57954  0.67384  0.63196  1.0000
  I   I322      1.0  0.59796  0.40319  0.84691  1.0000
  I   I323      1.0  0.81159  0.57190  0.19933  1.0000
  I   I324      1.0  0.36525  0.21155  0.46619  1.0000
  I   I325      1.0  0.27231  0.27648  0.80760  1.0000
  I   I326      1.0  0.77685  0.86132  0.25847  1.0000
  I   I327      1.0  0.78921  0.53694  0.23949  1.0000
  I   I328      1.0  0.70564  0.60701  0.52012  1.0000
  I   I329      1.0  0.98139  0.50704  0.63552  1.0000
  I   I330      1.0  0.31274  0.25640  0.99977  1.0000
  I   I331      1.0  0.63529  0.71829  0.27852  1.0000
  I   I332      1.0  0.41747  0.26455  0.01624  1.0000
  I   I333      1.0  0.65026  0.37757  0.86984  1.0000
  I   I334      1.0  0.89479  0.91661  0.21144  1.0000
  I   I335      1.0  0.83268  0.30795  0.81153  1.0000
  I   I336      1.0  0.51906  0.43296  0.37333  1.0000
  I   I337      1.0  0.26131  0.87610  0.30728  1.0000
  I   I338      1.0  0.02475  0.59916  0.22022  1.0000
  I   I339      1.0  0.56447  0.79467  0.66385  1.0000
  I   I340      1.0  0.79997  0.63537  0.48010  1.0000
  I   I341      1.0  0.54025  0.01706  0.50384  1.0000
  I   I342      1.0  0.31090  0.80244  0.76672  1.0000
  I   I343      1.0  0.61376  0.61790  0.64946  1.0000
  I   I344      1.0  0.75785  0.03425  0.71900  1.0000
  I   I345      1.0  0.12150  0.34580  0.70865  1.0000
  I   I346      1.0  0.21455  0.95028  0.56749  1.0000
  I   I347      1.0  0.12607  0.93732  0.95893  1.0000
  I   I348      1.0  0.88406  0.19579  0.03386  1.0000
  I   I349      1.0  0.51388  0.20862  0.12976  1.0000
  I   I350      1.0  0.84039  0.62571  0.86549  1.0000
  I   I351      1.0  0.24191  0.11813  0.85498  1.0000
  I   I352      1.0  0.73112  0.28068  0.86413  1.0000
  I   I353      1.0  0.01356  0.50624  0.90597  1.0000
  I   I354      1.0  0.70413  0.89918  0.32165  1.0000
  I   I355      1.0  0.44849  0.29132  0.66910  1.0000
  I   I356      1.0  0.83211  0.22046  0.78219  1.0000
  I   I357      1.0  0.10889  0.71945  0.43246  1.0000
  I   I358      1.0  0.42870  0.32036  0.41607  1.0000
  I   I359      1.0  0.24029  0.68729  0.25430  1.0000
  I   I360      1.0  0.90613  0.07757  0.81116  1.0000
  I   I361      1.0  0.75326  0.79938  0.88005  1.0000
  I   I362      1.0  0.75840  0.29715  0.28450  1.0000
  I   I363      1.0  0.12791  0.68624  0.34401  1.0000
  I   I364      1.0  0.15704  0.42640  0.21715  1.0000
  I   I365      1.0  0.89215  0.20129  0.39118  1.0000
  I   I366      1.0  0.96246  0.03332  0.64437  1.0000
  I   I367      1.0  0.48212  0.87587  0.44861  1.0000
  I   I368      1.0  0.76891  0.65435  0.57798  1.0000
  I   I369      1.0  0.27289  0.38375  0.68465  1.0000
  I   I370      1.0  0.09619  0.67320  0.83819  1.0000
  I   I371      1.0  0.83102  0.53741  0.29903  1.0000
  I   I372      1.0  0.45801  0.31004  0.50080  1.0000
  I   I373      1.0  0.32775  0.28897  0.69751  1.0000
  I   I374      1.0  0.41024  0.36840  0.98473  1.0000
  I   I375      1.0  0.82014  0.47862  0.22213  1.0000
  I   I376      1.0  0.27756  0.67818  0.15964  1.0000
  I   I377      1.0  0.03263  0.46141  0.61894  1.0000
  I   I378      1.0  0.89962  0.65467  0.45864  1.0000
  I   I379      1.0  0.67256  0.29252  0.61716  1.0000
  I   I380      1.0  0.32539  0.61295  0.11598  1.0000
  I   I381      1.0  0.47527  0.94044  0.64532  1.0000
  I   I382      1.0  0.87219  0.94112  0.39150  1.0000
  I   I383      1.0  0.61650  0.11504  0.57487  1.0000
  I   I384      1.0  0.87961  0.11730  0.89096  1.0000
