data_image0
_chemical_formula_structural       Ti96I384
_chemical_formula_sum              "Ti96 I384"
_cell_length_a       76.3681
_cell_length_b       76.4702
_cell_length_c       37.372
_cell_angle_alpha    88.7757
_cell_angle_beta     88.7757
_cell_angle_gamma    62.1586

_space_group_name_H-M_alt    "P 1"
_space_group_IT_number       1

loop_
  _space_group_symop_operation_xyz
  'x, y, z'

loop_
  _atom_site_type_symbol
  _atom_site_label
  _atom_site_symmetry_multiplicity
  _atom_site_fract_x
  _atom_site_fract_y
  _atom_site_fract_z
  _atom_site_occupancy
  Ti  Ti1       1.0  0.82276  0.95391  0.62095  1.0000
  Ti  Ti2       1.0  0.48394  0.78110  0.66008  1.0000
  Ti  Ti3       1.0  0.13388  0.18948  0.55933  1.0000
  Ti  Ti4       1.0  0.18951  0.18738  0.71406  1.0000
  Ti  Ti5       1.0  0.37516  0.01286  0.67407  1.0000
  Ti  Ti6       1.0  0.53048  0.54300  0.01300  1.0000
  Ti  Ti7       1.0  0.95707  0.79602  0.13188  1.0000
  Ti  Ti8       1.0  0.23126  0.94059  0.44379  1.0000
  Ti  Ti9       1.0  0.11204  0.54344  0.62232  1.0000
  Ti  Ti10      1.0  0.52189  0.70312  0.37551  1.0000
  Ti  Ti11      1.0  0.16152  0.85665  0.05309  1.0000
  Ti  Ti12      1.0  0.68576  0.94088  0.03239  1.0000
  Ti  Ti13      1.0  0.89448  0.62980  0.79694  1.0000
  Ti  Ti14      1.0  0.16245  0.23722  0.76993  1.0000
  Ti  Ti15      1.0  0.90348  0.31779  0.08796  1.0000
  Ti  Ti16      1.0  0.21537  0.79065  0.57345  1.0000
  Ti  Ti17      1.0  0.24821  0.62136  0.55358  1.0000
  Ti  Ti18      1.0  0.65052  0.14151  0.89635  1.0000
  Ti  Ti19      1.0  0.66890  0.30962  0.83657  1.0000
  Ti  Ti20      1.0  0.01860  0.72604  0.95645  1.0000
  Ti  Ti21      1.0  0.25920  0.91734  0.49265  1.0000
  Ti  Ti22      1.0  0.56997  0.40958  0.75894  1.0000
  Ti  Ti23      1.0  0.16473  0.59095  0.56675  1.0000
  Ti  Ti24      1.0  0.62677  0.24804  0.55286  1.0000
  Ti  Ti25      1.0  0.70414  0.51886  0.07726  1.0000
  Ti  Ti26      1.0  0.10480  0.72377  0.56455  1.0000
  Ti  Ti27      1.0  0.67196  0.71031  0.00500  1.0000
  Ti  Ti28      1.0  0.49137  0.06144  0.01152  1.0000
  Ti  Ti29      1.0  0.97860  0.05856  0.84812  1.0000
  Ti  Ti30      1.0  0.14854  0.05593  0.23385  1.0000
  Ti  Ti31      1.0  0.77973  0.21985  0.17394  1.0000
  Ti  Ti32      1.0  0.49140  0.73815  0.05179  1.0000
  Ti  Ti33      1.0  0.54254  0.35470  0.96382  1.0000
  Ti  Ti34      1.0  0.77465  0.50310  0.35977  1.0000
  Ti  Ti35      1.0  0.57185  0.85004  0.19534  1.0000
  Ti  Ti36      1.0  0.21138  0.25084  0.52631  1.0000
  Ti  Ti37      1.0  0.14985  0.34999  0.80887  1.0000
  Ti  Ti38      1.0  0.40847  0.43693  0.77554  1.0000
  Ti  Ti39      1.0  0.95795  0.28360  0.61739  1.0000
  Ti  Ti40      1.0  0.55786  0.70440  0.43999  1.0000
  Ti  Ti41      1.0  0.79180  0.64930  0.13115  1.0000
  Ti  Ti42      1.0  0.84752  0.78708  0.49909  1.0000
  Ti  Ti43      1.0  0.04362  0.79627  0.19261  1.0000
  Ti  Ti44      1.0  0.78881  0.33202  0.37790  1.0000
  Ti  Ti45      1.0  0.71974  0.73099  0.35585  1.0000
  Ti  Ti46      1.0  0.84445  0.53906  0.00055  1.0000
  Ti  Ti47      1.0  0.92554  0.94089  0.97232  1.0000
  Ti  Ti48      1.0  0.99967  0.93371  0.50631  1.0000
  Ti  Ti49      1.0  0.00006  0.83204  0.22479  1.0000
  Ti  Ti50      1.0  0.06993  0.40620  0.99459  1.0000
  Ti  Ti51      1.0  0.53662  0.76517  0.70168  1.0000
  Ti  Ti52      1.0  0.45700  0.41201  0.07793  1.0000
  Ti  Ti53      1.0  0.40193  0.66993  0.75152  1.0000
  Ti  Ti54      1.0  0.38651  0.94324  0.85835  1.0000
  Ti  Ti55      1.0  0.49371  0.71015  0.14470  1.0000
  Ti  Ti56      1.0  0.77233  0.90782  0.80167  1.0000
  Ti  Ti57      1.0  0.16857  0.52908  0.63667  1.0000
  Ti  Ti58      1.0  0.40278  0.13616  0.63178  1.0000
  Ti  Ti59      1.0  0.18935  0.81967  0.62945  1.0000
  Ti  Ti60      1.0  0.87515  0.18764  0.98436  1.0000
  Ti  Ti61      1.0  0.68169  0.08656  0.46536  1.0000
  Ti  Ti62      1.0  0.90861  0.59913  0.72160  1.0000
  Ti  Ti63      1.0  0.01650  0.78136  0.99059  1.0000
  Ti  Ti64      1.0  0.67841  0.10174  0.88488  1.0000
  Ti  Ti65      1.0  0.45810  0.26018  0.69790  1.0000
  Ti  Ti66      1.0  0.40123  0.01034  0.02500  1.0000
  Ti  Ti67      1.0  0.32465  0.19345  0.31018  1.0000
  Ti  Ti68      1.0  0.68712  0.13177  0.07223  1.0000
  Ti  Ti69      1.0  0.05519  0.76656  0.56143  1.0000
  Ti  Ti70      1.0  0.27936  0.05576  0.52897  1.0000
  Ti  Ti71      1.0  0.20701  0.64240  0.24217  1.0000
  Ti  Ti72      1.0  0.99084  0.91592  0.95468  1.0000
  Ti  Ti73      1.0  0.64451  0.38433  0.29533  1.0000
  Ti  Ti74      1.0  0.72979  0.47294  0.03509  1.0000
  Ti  Ti75      1.0  0.03930  0.69989  0.17851  1.0000
  Ti  Ti76      1.0  0.52432  0.03332  0.48959  1.0000
  Ti  Ti77      1.0  0.85986  0.29444  0.10217  1.0000
  Ti  Ti78      1.0  0.04182  0.01917  0.84632  1.0000
  Ti  Ti79      1.0  0.43944  0.86286  0.37699  1.0000
  Ti  Ti80      1.0  0.71028  0.86178  0.84899  1.0000
  Ti  Ti81      1.0  0.15471  0.60027  0.44922  1.0000
  Ti  Ti82      1.0  0.70909  0.53573  0.80747  1.0000
  Ti  Ti83      1.0  0.00981  0.45845  0.27194  1.0000
  Ti  Ti84      1.0  0.25727  0.23301  0.53837  1.0000
  Ti  Ti85      1.0  0.16056  0.37548  0.77625  1.0000
  Ti  Ti86      1.0  0.93064  0.86009  0.07251  1.0000
  Ti  Ti87      1.0  0.68550  0.78159  0.28419  1.0000
  Ti  Ti88      1.0  0.15096  0.72299  0.97258  1.0000
  Ti  Ti89      1.0  0.03378  0.55534  0.32068  1.0000
  Ti  Ti90      1.0  0.11098  0.36519  0.99701  1.0000
  Ti  Ti91      1.0  0.75618  0.12267  0.48556  1.0000
  Ti  Ti92      1.0  0.30214  0.55018  0.19215  1.0000
  Ti  Ti93      1.0  0.42181  0.53225  0.72417  1.0000
  Ti  Ti94      1.0  0.97498  0.91300  0.51256  1.0000
  Ti  Ti95      1.0  0.34536  0.20858  0.97674  1.0000
  Ti  Ti96      1.0  0.51491  0.42891  0.83276  1.0000
  I   I1        1.0  0.99249  0.95249  0.96196  1.0000
  I   I2        1.0  0.51929  0.79164  0.64674  1.0000
  I   I3        1.0  0.99234  0.87017  0.24850  1.0000
  I   I4        1.0  0.37817  0.68811  0.69469  1.0000
  I   I5        1.0  0.52022  0.52434  0.97306  1.0000
  I   I6        1.0  0.37954  0.92288  0.81346  1.0000
  I   I7        1.0  0.28627  0.91463  0.44993  1.0000
  I   I8        1.0  0.78378  0.93273  0.77813  1.0000
  I   I9        1.0  0.15131  0.50731  0.65814  1.0000
  I   I10       1.0  0.58366  0.68219  0.48581  1.0000
  I   I11       1.0  0.15528  0.82648  0.03369  1.0000
  I   I12       1.0  0.34666  0.04291  0.71129  1.0000
  I   I13       1.0  0.87969  0.64278  0.72983  1.0000
  I   I14       1.0  0.02474  0.75846  0.92956  1.0000
  I   I15       1.0  0.93524  0.29122  0.11381  1.0000
  I   I16       1.0  0.56709  0.73529  0.44335  1.0000
  I   I17       1.0  0.41835  0.01468  0.08370  1.0000
  I   I18       1.0  0.63670  0.10994  0.88008  1.0000
  I   I19       1.0  0.99870  0.72739  0.90534  1.0000
  I   I20       1.0  0.12256  0.88213  0.04185  1.0000
  I   I21       1.0  0.19352  0.95613  0.43322  1.0000
  I   I22       1.0  0.14093  0.60645  0.61857  1.0000
  I   I23       1.0  0.11764  0.71806  0.96112  1.0000
  I   I24       1.0  0.28744  0.02943  0.47723  1.0000
  I   I25       1.0  0.70854  0.54325  0.04025  1.0000
  I   I26       1.0  0.02209  0.70541  0.12009  1.0000
  I   I27       1.0  0.64589  0.69918  0.01866  1.0000
  I   I28       1.0  0.52702  0.05090  0.03697  1.0000
  I   I29       1.0  0.00944  0.01767  0.88382  1.0000
  I   I30       1.0  0.13327  0.03654  0.27036  1.0000
  I   I31       1.0  0.68042  0.89361  0.82323  1.0000
  I   I32       1.0  0.15384  0.58303  0.39597  1.0000
  I   I33       1.0  0.41134  0.90186  0.37016  1.0000
  I   I34       1.0  0.60208  0.81762  0.18135  1.0000
  I   I35       1.0  0.26117  0.20293  0.58456  1.0000
  I   I36       1.0  0.79256  0.49545  0.30112  1.0000
  I   I37       1.0  0.17073  0.39774  0.73731  1.0000
  I   I38       1.0  0.92243  0.30421  0.64387  1.0000
  I   I39       1.0  0.12317  0.40544  0.77360  1.0000
  I   I40       1.0  0.77858  0.32797  0.44654  1.0000
  I   I41       1.0  0.10237  0.40727  0.98435  1.0000
  I   I42       1.0  0.52295  0.72462  0.48476  1.0000
  I   I43       1.0  0.36631  0.16193  0.64506  1.0000
  I   I44       1.0  0.81865  0.29614  0.36588  1.0000
  I   I45       1.0  0.71389  0.69951  0.37160  1.0000
  I   I46       1.0  0.37829  0.17951  0.94634  1.0000
  I   I47       1.0  0.90395  0.97560  0.94637  1.0000
  I   I48       1.0  0.98264  0.92660  0.57086  1.0000
  I   I49       1.0  0.01429  0.83190  0.15559  1.0000
  I   I50       1.0  0.47731  0.78382  0.59011  1.0000
  I   I51       1.0  0.45178  0.81457  0.68307  1.0000
  I   I52       1.0  0.70352  0.83151  0.86410  1.0000
  I   I53       1.0  0.42977  0.67585  0.78134  1.0000
  I   I54       1.0  0.37695  0.97737  0.88198  1.0000
  I   I55       1.0  0.96985  0.82937  0.10839  1.0000
  I   I56       1.0  0.22652  0.91441  0.50052  1.0000
  I   I57       1.0  0.30460  0.23606  0.99571  1.0000
  I   I58       1.0  0.54522  0.67571  0.44680  1.0000
  I   I59       1.0  0.15728  0.85572  0.63171  1.0000
  I   I60       1.0  0.86843  0.16905  0.04214  1.0000
  I   I61       1.0  0.87261  0.66665  0.82072  1.0000
  I   I62       1.0  0.94727  0.57803  0.72494  1.0000
  I   I63       1.0  0.01817  0.74383  0.02131  1.0000
  I   I64       1.0  0.21572  0.78179  0.50000  1.0000
  I   I65       1.0  0.46958  0.25809  0.62658  1.0000
  I   I66       1.0  0.42406  0.98094  0.98674  1.0000
  I   I67       1.0  0.67883  0.30667  0.90594  1.0000
  I   I68       1.0  0.05412  0.70536  0.93214  1.0000
  I   I69       1.0  0.03698  0.76070  0.50459  1.0000
  I   I70       1.0  0.24906  0.08737  0.51437  1.0000
  I   I71       1.0  0.16357  0.57132  0.49784  1.0000
  I   I72       1.0  0.90332  0.94191  0.02449  1.0000
  I   I73       1.0  0.69498  0.67892  0.96761  1.0000
  I   I74       1.0  0.12305  0.70713  0.63016  1.0000
  I   I75       1.0  0.11565  0.69127  0.53253  1.0000
  I   I76       1.0  0.83252  0.31736  0.14770  1.0000
  I   I77       1.0  0.90512  0.32811  0.02071  1.0000
  I   I78       1.0  0.80234  0.21612  0.22665  1.0000
  I   I79       1.0  0.50598  0.36241  0.94865  1.0000
  I   I80       1.0  0.79233  0.96153  0.57289  1.0000
  I   I81       1.0  0.48184  0.77754  0.05475  1.0000
  I   I82       1.0  0.71653  0.51548  0.74356  1.0000
  I   I83       1.0  0.99748  0.45116  0.33568  1.0000
  I   I84       1.0  0.22073  0.27243  0.57313  1.0000
  I   I85       1.0  0.15301  0.31128  0.81862  1.0000
  I   I86       1.0  0.37665  0.00336  0.06580  1.0000
  I   I87       1.0  0.96444  0.24698  0.61570  1.0000
  I   I88       1.0  0.49673  0.68951  0.38614  1.0000
  I   I89       1.0  0.80745  0.49412  0.39970  1.0000
  I   I90       1.0  0.08992  0.37256  0.93500  1.0000
  I   I91       1.0  0.76614  0.08803  0.51533  1.0000
  I   I92       1.0  0.28456  0.56430  0.13338  1.0000
  I   I93       1.0  0.81646  0.34095  0.40716  1.0000
  I   I94       1.0  0.01592  0.89296  0.50756  1.0000
  I   I95       1.0  0.84498  0.51297  0.05209  1.0000
  I   I96       1.0  0.57375  0.39711  0.69619  1.0000
  I   I97       1.0  0.09569  0.21514  0.57143  1.0000
  I   I98       1.0  0.83216  0.96479  0.67825  1.0000
  I   I99       1.0  0.50073  0.77347  0.74164  1.0000
  I   I100      1.0  0.22480  0.18843  0.71215  1.0000
  I   I101      1.0  0.17903  0.70765  0.92734  1.0000
  I   I102      1.0  0.37223  0.01596  0.60417  1.0000
  I   I103      1.0  0.92833  0.83480  0.12745  1.0000
  I   I104      1.0  0.48178  0.68115  0.13397  1.0000
  I   I105      1.0  0.14524  0.53056  0.57687  1.0000
  I   I106      1.0  0.72465  0.93689  0.02161  1.0000
  I   I107      1.0  0.56253  0.69392  0.36380  1.0000
  I   I108      1.0  0.67425  0.93669  0.97225  1.0000
  I   I109      1.0  0.89534  0.35298  0.10840  1.0000
  I   I110      1.0  0.88130  0.61841  0.86140  1.0000
  I   I111      1.0  0.01977  0.80620  0.94078  1.0000
  I   I112      1.0  0.67383  0.12333  0.82658  1.0000
  I   I113      1.0  0.44403  0.29419  0.72349  1.0000
  I   I114      1.0  0.25071  0.65358  0.52388  1.0000
  I   I115      1.0  0.31801  0.18492  0.24723  1.0000
  I   I116      1.0  0.36125  0.17947  0.34111  1.0000
  I   I117      1.0  0.65011  0.16289  0.08685  1.0000
  I   I118      1.0  0.53558  0.43461  0.88068  1.0000
  I   I119      1.0  0.31141  0.22964  0.29625  1.0000
  I   I120      1.0  0.96484  0.93328  0.01207  1.0000
  I   I121      1.0  0.65771  0.38552  0.22941  1.0000
  I   I122      1.0  0.66803  0.52942  0.08985  1.0000
  I   I123      1.0  0.02771  0.73017  0.21819  1.0000
  I   I124      1.0  0.18481  0.03616  0.26110  1.0000
  I   I125      1.0  0.56210  0.02174  0.47625  1.0000
  I   I126      1.0  0.06451  0.99840  0.89812  1.0000
  I   I127      1.0  0.55472  0.37734  0.93092  1.0000
  I   I128      1.0  0.14976  0.20554  0.74140  1.0000
  I   I129      1.0  0.18577  0.60614  0.43269  1.0000
  I   I130      1.0  0.26631  0.24969  0.59590  1.0000
  I   I131      1.0  0.72838  0.55123  0.78144  1.0000
  I   I132      1.0  0.54223  0.86147  0.15209  1.0000
  I   I133      1.0  0.99046  0.27603  0.65032  1.0000
  I   I134      1.0  0.45036  0.42276  0.76522  1.0000
  I   I135      1.0  0.37784  0.04136  0.98739  1.0000
  I   I136      1.0  0.85227  0.80160  0.55484  1.0000
  I   I137      1.0  0.43644  0.39457  0.09413  1.0000
  I   I138      1.0  0.03009  0.52785  0.29091  1.0000
  I   I139      1.0  0.73577  0.11713  0.43497  1.0000
  I   I140      1.0  0.33347  0.51814  0.19199  1.0000
  I   I141      1.0  0.39676  0.56969  0.69050  1.0000
  I   I142      1.0  0.97871  0.90280  0.44197  1.0000
  I   I143      1.0  0.13411  0.19309  0.62948  1.0000
  I   I144      1.0  0.60004  0.37604  0.77810  1.0000
  I   I145      1.0  0.83769  0.91749  0.63183  1.0000
  I   I146      1.0  0.47193  0.75690  0.67831  1.0000
  I   I147      1.0  0.13195  0.15429  0.54930  1.0000
  I   I148      1.0  0.44268  0.43300  0.14030  1.0000
  I   I149      1.0  0.35974  0.98806  0.67961  1.0000
  I   I150      1.0  0.54778  0.52000  0.07145  1.0000
  I   I151      1.0  0.46067  0.73900  0.09340  1.0000
  I   I152      1.0  0.23570  0.96287  0.39370  1.0000
  I   I153      1.0  0.09392  0.52368  0.60743  1.0000
  I   I154      1.0  0.06835  0.76036  0.23362  1.0000
  I   I155      1.0  0.18578  0.86371  0.00554  1.0000
  I   I156      1.0  0.86897  0.22324  0.99737  1.0000
  I   I157      1.0  0.86269  0.26089  0.13387  1.0000
  I   I158      1.0  0.98153  0.79678  0.01188  1.0000
  I   I159      1.0  0.66419  0.09274  0.52701  1.0000
  I   I160      1.0  0.71242  0.08027  0.91067  1.0000
  I   I161      1.0  0.24581  0.58867  0.53232  1.0000
  I   I162      1.0  0.61635  0.17056  0.88295  1.0000
  I   I163      1.0  0.68629  0.33051  0.80891  1.0000
  I   I164      1.0  0.70772  0.11336  0.01617  1.0000
  I   I165      1.0  0.24273  0.90576  0.39712  1.0000
  I   I166      1.0  0.50810  0.39968  0.86053  1.0000
  I   I167      1.0  0.17790  0.55336  0.59344  1.0000
  I   I168      1.0  0.61084  0.23137  0.51428  1.0000
  I   I169      1.0  0.73795  0.43508  0.02851  1.0000
  I   I170      1.0  0.70736  0.47193  0.09400  1.0000
  I   I171      1.0  0.68799  0.73433  0.99569  1.0000
  I   I172      1.0  0.52555  0.01152  0.54609  1.0000
  I   I173      1.0  0.06647  0.00925  0.79645  1.0000
  I   I174      1.0  0.15222  0.05633  0.16314  1.0000
  I   I175      1.0  0.74717  0.25384  0.17579  1.0000
  I   I176      1.0  0.51535  0.73244  0.10109  1.0000
  I   I177      1.0  0.42472  0.84126  0.40606  1.0000
  I   I178      1.0  0.70083  0.50289  0.81686  1.0000
  I   I179      1.0  0.00115  0.44152  0.22252  1.0000
  I   I180      1.0  0.24251  0.25820  0.48565  1.0000
  I   I181      1.0  0.15599  0.36700  0.86130  1.0000
  I   I182      1.0  0.99600  0.77414  0.13885  1.0000
  I   I183      1.0  0.64897  0.81098  0.28355  1.0000
  I   I184      1.0  0.14078  0.75882  0.99295  1.0000
  I   I185      1.0  0.99297  0.58566  0.33345  1.0000
  I   I186      1.0  0.81515  0.78574  0.49793  1.0000
  I   I187      1.0  0.31296  0.57584  0.21865  1.0000
  I   I188      1.0  0.75820  0.34003  0.33953  1.0000
  I   I189      1.0  0.71534  0.73218  0.28020  1.0000
  I   I190      1.0  0.81602  0.57470  0.02853  1.0000
  I   I191      1.0  0.05513  0.38416  0.03171  1.0000
  I   I192      1.0  0.17172  0.15696  0.56754  1.0000
  I   I193      1.0  0.97285  0.08896  0.80464  1.0000
  I   I194      1.0  0.06027  0.42089  0.06066  1.0000
  I   I195      1.0  0.14643  0.21428  0.53620  1.0000
  I   I196      1.0  0.19183  0.15196  0.72387  1.0000
  I   I197      1.0  0.41418  0.10836  0.67761  1.0000
  I   I198      1.0  0.55941  0.54904  0.00251  1.0000
  I   I199      1.0  0.50749  0.69600  0.06533  1.0000
  I   I200      1.0  0.74536  0.91115  0.76048  1.0000
  I   I201      1.0  0.08918  0.57504  0.59574  1.0000
  I   I202      1.0  0.21798  0.82967  0.64697  1.0000
  I   I203      1.0  0.07050  0.72727  0.58763  1.0000
  I   I204      1.0  0.69754  0.90683  0.06319  1.0000
  I   I205      1.0  0.88636  0.59599  0.77888  1.0000
  I   I206      1.0  0.15614  0.25829  0.71371  1.0000
  I   I207      1.0  0.83961  0.30022  0.04459  1.0000
  I   I208      1.0  0.16625  0.80122  0.60268  1.0000
  I   I209      1.0  0.22688  0.63346  0.60994  1.0000
  I   I210      1.0  0.45202  0.88227  0.42145  1.0000
  I   I211      1.0  0.30824  0.05659  0.56706  1.0000
  I   I212      1.0  0.01305  0.70107  0.99257  1.0000
  I   I213      1.0  0.02505  0.78809  0.60647  1.0000
  I   I214      1.0  0.53202  0.44197  0.77421  1.0000
  I   I215      1.0  0.19683  0.58927  0.58805  1.0000
  I   I216      1.0  0.42491  0.54851  0.78162  1.0000
  I   I217      1.0  0.71404  0.52379  0.14001  1.0000
  I   I218      1.0  0.07470  0.67318  0.18652  1.0000
  I   I219      1.0  0.67164  0.38216  0.33776  1.0000
  I   I220      1.0  0.89427  0.28781  0.06454  1.0000
  I   I221      1.0  0.95928  0.04591  0.81544  1.0000
  I   I222      1.0  0.52358  0.06428  0.51894  1.0000
  I   I223      1.0  0.79463  0.22625  0.11664  1.0000
  I   I224      1.0  0.51043  0.73929  0.99087  1.0000
  I   I225      1.0  0.55494  0.35476  0.03174  1.0000
  I   I226      1.0  0.67014  0.56113  0.78746  1.0000
  I   I227      1.0  0.57475  0.88240  0.20487  1.0000
  I   I228      1.0  0.18221  0.27824  0.49467  1.0000
  I   I229      1.0  0.28488  0.60920  0.56840  1.0000
  I   I230      1.0  0.37790  0.45067  0.81980  1.0000
  I   I231      1.0  0.97190  0.29116  0.55661  1.0000
  I   I232      1.0  0.13620  0.24375  0.82217  1.0000
  I   I233      1.0  0.82837  0.62239  0.10148  1.0000
  I   I234      1.0  0.14736  0.34517  0.98658  1.0000
  I   I235      1.0  0.03676  0.82544  0.25516  1.0000
  I   I236      1.0  0.45206  0.52272  0.69329  1.0000
  I   I237      1.0  0.79061  0.11746  0.47262  1.0000
  I   I238      1.0  0.35374  0.22440  0.02896  1.0000
  I   I239      1.0  0.47905  0.44156  0.80393  1.0000
  I   I240      1.0  0.01318  0.95496  0.53594  1.0000
  I   I241      1.0  0.84550  0.95603  0.56729  1.0000
  I   I242      1.0  0.52143  0.74421  0.65634  1.0000
  I   I243      1.0  0.87419  0.53583  0.95275  1.0000
  I   I244      1.0  0.17504  0.70304  0.02448  1.0000
  I   I245      1.0  0.39810  0.66059  0.82387  1.0000
  I   I246      1.0  0.50158  0.57345  0.03893  1.0000
  I   I247      1.0  0.93542  0.87790  0.01470  1.0000
  I   I248      1.0  0.27933  0.87675  0.50508  1.0000
  I   I249      1.0  0.10920  0.54992  0.69027  1.0000
  I   I250      1.0  0.25244  0.77972  0.56406  1.0000
  I   I251      1.0  0.16370  0.85280  0.12112  1.0000
  I   I252      1.0  0.85620  0.18738  0.92353  1.0000
  I   I253      1.0  0.93431  0.60823  0.79037  1.0000
  I   I254      1.0  0.18791  0.24240  0.80681  1.0000
  I   I255      1.0  0.66965  0.06885  0.41821  1.0000
  I   I256      1.0  0.48945  0.23650  0.73470  1.0000
  I   I257      1.0  0.10949  0.36585  0.82052  1.0000
  I   I258      1.0  0.65642  0.17015  0.91190  1.0000
  I   I259      1.0  0.30120  0.18290  0.35016  1.0000
  I   I260      1.0  0.69432  0.10291  0.12043  1.0000
  I   I261      1.0  0.26175  0.92222  0.56151  1.0000
  I   I262      1.0  0.54506  0.39366  0.79352  1.0000
  I   I263      1.0  0.18713  0.62808  0.20481  1.0000
  I   I264      1.0  0.19566  0.23042  0.56091  1.0000
  I   I265      1.0  0.75022  0.48460  0.08354  1.0000
  I   I266      1.0  0.09155  0.74233  0.50373  1.0000
  I   I267      1.0  0.64941  0.34733  0.30015  1.0000
  I   I268      1.0  0.47692  0.05298  0.06580  1.0000
  I   I269      1.0  0.02666  0.05610  0.87330  1.0000
  I   I270      1.0  0.47271  0.09448  0.96715  1.0000
  I   I271      1.0  0.75870  0.19890  0.20910  1.0000
  I   I272      1.0  0.12072  0.62086  0.47615  1.0000
  I   I273      1.0  0.55608  0.31859  0.92921  1.0000
  I   I274      1.0  0.78486  0.65484  0.19916  1.0000
  I   I275      1.0  0.55813  0.84886  0.25857  1.0000
  I   I276      1.0  0.29577  0.21862  0.53052  1.0000
  I   I277      1.0  0.71733  0.53010  0.87747  1.0000
  I   I278      1.0  0.41774  0.40083  0.76474  1.0000
  I   I279      1.0  0.67785  0.75705  0.33821  1.0000
  I   I280      1.0  0.49597  0.38819  0.07871  1.0000
  I   I281      1.0  0.78169  0.67667  0.08018  1.0000
  I   I282      1.0  0.88345  0.77832  0.47215  1.0000
  I   I283      1.0  0.05741  0.76671  0.14430  1.0000
  I   I284      1.0  0.64625  0.26667  0.56807  1.0000
  I   I285      1.0  0.71481  0.78910  0.29328  1.0000
  I   I286      1.0  0.34529  0.17545  0.99890  1.0000
  I   I287      1.0  0.91724  0.91625  0.93419  1.0000
  I   I288      1.0  0.95757  0.95379  0.48850  1.0000
  I   I289      1.0  0.06555  0.81363  0.16981  1.0000
  I   I290      1.0  0.11151  0.37001  0.06684  1.0000
  I   I291      1.0  0.54367  0.78729  0.74459  1.0000
  I   I292      1.0  0.44625  0.44327  0.03874  1.0000
  I   I293      1.0  0.43025  0.65150  0.70655  1.0000
  I   I294      1.0  0.41919  0.93487  0.82803  1.0000
  I   I295      1.0  0.94939  0.79335  0.19812  1.0000
  I   I296      1.0  0.79623  0.87555  0.77429  1.0000
  I   I297      1.0  0.20227  0.49378  0.62049  1.0000
  I   I298      1.0  0.41641  0.15747  0.65428  1.0000
  I   I299      1.0  0.22445  0.75152  0.56687  1.0000
  I   I300      1.0  0.41202  0.50665  0.69989  1.0000
  I   I301      1.0  0.71918  0.06525  0.43802  1.0000
  I   I302      1.0  0.91449  0.62093  0.66926  1.0000
  I   I303      1.0  0.50469  0.72004  0.31219  1.0000
  I   I304      1.0  0.66174  0.11965  0.96081  1.0000
  I   I305      1.0  0.21699  0.78103  0.64657  1.0000
  I   I306      1.0  0.94740  0.76993  0.11460  1.0000
  I   I307      1.0  0.66923  0.27558  0.81544  1.0000
  I   I308      1.0  0.03262  0.77937  0.04529  1.0000
  I   I309      1.0  0.22655  0.96563  0.50122  1.0000
  I   I310      1.0  0.00212  0.79723  0.22365  1.0000
  I   I311      1.0  0.24134  0.61475  0.24056  1.0000
  I   I312      1.0  0.00803  0.87301  0.94143  1.0000
  I   I313      1.0  0.61369  0.42105  0.29062  1.0000
  I   I314      1.0  0.69604  0.50835  0.00810  1.0000
  I   I315      1.0  0.02048  0.68286  0.20925  1.0000
  I   I316      1.0  0.50226  0.05193  0.43714  1.0000
  I   I317      1.0  0.49865  0.03673  0.95349  1.0000
  I   I318      1.0  0.01366  0.03203  0.79910  1.0000
  I   I319      1.0  0.44010  0.85503  0.30823  1.0000
  I   I320      1.0  0.18660  0.18221  0.64913  1.0000
  I   I321      1.0  0.52198  0.67173  0.16911  1.0000
  I   I322      1.0  0.75856  0.54014  0.37592  1.0000
  I   I323      1.0  0.04646  0.44157  0.28707  1.0000
  I   I324      1.0  0.24292  0.21080  0.50471  1.0000
  I   I325      1.0  0.19194  0.33791  0.77525  1.0000
  I   I326      1.0  0.89813  0.88894  0.09012  1.0000
  I   I327      1.0  0.75475  0.70867  0.37877  1.0000
  I   I328      1.0  0.52643  0.73696  0.39569  1.0000
  I   I329      1.0  0.04369  0.57985  0.28145  1.0000
  I   I330      1.0  0.11193  0.33063  0.00563  1.0000
  I   I331      1.0  0.68671  0.77061  0.22238  1.0000
  I   I332      1.0  0.41636  0.11744  0.56943  1.0000
  I   I333      1.0  0.76455  0.47896  0.38341  1.0000
  I   I334      1.0  0.95610  0.89786  0.55497  1.0000
  I   I335      1.0  0.82171  0.53994  0.94756  1.0000
  I   I336      1.0  0.59588  0.42257  0.74752  1.0000
  I   I337      1.0  0.98840  0.82914  0.29188  1.0000
  I   I338      1.0  0.05035  0.42984  0.94487  1.0000
  I   I339      1.0  0.56994  0.73702  0.67984  1.0000
  I   I340      1.0  0.72355  0.85005  0.78557  1.0000
  I   I341      1.0  0.41080  0.00304  0.69103  1.0000
  I   I342      1.0  0.39448  0.92279  0.91986  1.0000
  I   I343      1.0  0.46981  0.73306  0.19650  1.0000
  I   I344      1.0  0.76307  0.90649  0.86687  1.0000
  I   I345      1.0  0.15803  0.55788  0.68086  1.0000
  I   I346      1.0  0.25960  0.03835  0.56081  1.0000
  I   I347      1.0  0.19375  0.83322  0.56526  1.0000
  I   I348      1.0  0.91223  0.16392  0.98079  1.0000
  I   I349      1.0  0.67385  0.11763  0.42699  1.0000
  I   I350      1.0  0.90180  0.57278  0.68909  1.0000
  I   I351      1.0  0.18559  0.19636  0.78652  1.0000
  I   I352      1.0  0.69312  0.06850  0.84205  1.0000
  I   I353      1.0  0.44592  0.23498  0.69257  1.0000
  I   I354      1.0  0.91726  0.84533  0.02455  1.0000
  I   I355      1.0  0.63025  0.32471  0.83256  1.0000
  I   I356      1.0  0.70705  0.14940  0.08835  1.0000
  I   I357      1.0  0.09235  0.76229  0.59288  1.0000
  I   I358      1.0  0.59302  0.28174  0.53927  1.0000
  I   I359      1.0  0.18837  0.64808  0.30639  1.0000
  I   I360      1.0  0.02483  0.90352  0.92051  1.0000
  I   I361      1.0  0.68710  0.70357  0.07049  1.0000
  I   I362      1.0  0.75233  0.46789  0.97861  1.0000
  I   I363      1.0  0.05685  0.79653  0.52187  1.0000
  I   I364      1.0  0.11987  0.09110  0.24810  1.0000
  I   I365      1.0  0.85843  0.33462  0.09073  1.0000
  I   I366      1.0  0.95299  0.08309  0.90136  1.0000
  I   I367      1.0  0.47475  0.85417  0.34433  1.0000
  I   I368      1.0  0.71649  0.87340  0.91251  1.0000
  I   I369      1.0  0.16526  0.62106  0.51752  1.0000
  I   I370      1.0  0.77180  0.63069  0.12078  1.0000
  I   I371      1.0  0.99846  0.49399  0.23795  1.0000
  I   I372      1.0  0.65403  0.21388  0.57034  1.0000
  I   I373      1.0  0.14476  0.35415  0.72971  1.0000
  I   I374      1.0  0.39856  0.44931  0.71329  1.0000
  I   I375      1.0  0.71035  0.75498  0.41028  1.0000
  I   I376      1.0  0.20298  0.67322  0.20990  1.0000
  I   I377      1.0  0.06615  0.52886  0.34914  1.0000
  I   I378      1.0  0.83482  0.81347  0.44366  1.0000
  I   I379      1.0  0.73576  0.16043  0.51018  1.0000
  I   I380      1.0  0.27620  0.54556  0.24061  1.0000
  I   I381      1.0  0.66262  0.97857  0.06382  1.0000
  I   I382      1.0  0.00462  0.94549  0.43953  1.0000
  I   I383      1.0  0.33556  0.22752  0.91686  1.0000
  I   I384      1.0  0.96117  0.92505  0.91305  1.0000
