data_image0
_chemical_formula_structural       Ti96I384
_chemical_formula_sum              "Ti96 I384"
_cell_length_a       71.5905
_cell_length_b       71.4553
_cell_length_c       34.9848
_cell_angle_alpha    88.7757
_cell_angle_beta     88.7757
_cell_angle_gamma    62.1586

_space_group_name_H-M_alt    "P 1"
_space_group_IT_number       1

loop_
  _space_group_symop_operation_xyz
  'x, y, z'

loop_
  _atom_site_type_symbol
  _atom_site_label
  _atom_site_symmetry_multiplicity
  _atom_site_fract_x
  _atom_site_fract_y
  _atom_site_fract_z
  _atom_site_occupancy
  Ti  Ti1       1.0  0.32047  0.78330  0.21008  1.0000
  Ti  Ti2       1.0  0.03050  0.04285  0.07697  1.0000
  Ti  Ti3       1.0  0.26653  0.19353  0.42286  1.0000
  Ti  Ti4       1.0  0.94582  0.72572  0.77509  1.0000
  Ti  Ti5       1.0  0.43712  0.50595  0.23800  1.0000
  Ti  Ti6       1.0  0.82776  0.85333  0.47140  1.0000
  Ti  Ti7       1.0  0.55639  0.92717  0.48931  1.0000
  Ti  Ti8       1.0  0.11071  0.57497  0.35485  1.0000
  Ti  Ti9       1.0  0.40937  0.25678  0.80355  1.0000
  Ti  Ti10      1.0  0.48798  0.49365  0.75313  1.0000
  Ti  Ti11      1.0  0.23313  0.41826  0.23244  1.0000
  Ti  Ti12      1.0  0.00036  0.55811  0.26606  1.0000
  Ti  Ti13      1.0  0.74618  0.54386  0.06481  1.0000
  Ti  Ti14      1.0  0.00785  0.75795  0.79218  1.0000
  Ti  Ti15      1.0  0.65160  0.60542  0.65478  1.0000
  Ti  Ti16      1.0  0.49632  0.53964  0.70830  1.0000
  Ti  Ti17      1.0  0.25635  0.40775  0.77484  1.0000
  Ti  Ti18      1.0  0.36230  0.06669  0.46200  1.0000
  Ti  Ti19      1.0  0.33933  0.59602  0.44698  1.0000
  Ti  Ti20      1.0  0.22260  0.83683  0.42055  1.0000
  Ti  Ti21      1.0  0.13130  0.52858  0.29794  1.0000
  Ti  Ti22      1.0  0.76571  0.61071  0.42637  1.0000
  Ti  Ti23      1.0  0.17770  0.07981  0.24341  1.0000
  Ti  Ti24      1.0  0.92142  0.78989  0.66567  1.0000
  Ti  Ti25      1.0  0.41072  0.40294  0.36453  1.0000
  Ti  Ti26      1.0  0.70165  0.92300  0.76409  1.0000
  Ti  Ti27      1.0  0.74684  0.22573  0.17347  1.0000
  Ti  Ti28      1.0  0.35353  0.99229  0.86131  1.0000
  Ti  Ti29      1.0  0.24101  0.74852  0.87026  1.0000
  Ti  Ti30      1.0  0.26831  0.84801  0.97788  1.0000
  Ti  Ti31      1.0  0.58013  0.14755  0.18519  1.0000
  Ti  Ti32      1.0  0.30723  0.92292  0.18018  1.0000
  Ti  Ti33      1.0  0.25376  0.61751  0.75394  1.0000
  Ti  Ti34      1.0  0.62460  0.52481  0.86799  1.0000
  Ti  Ti35      1.0  0.10669  0.38673  0.52847  1.0000
  Ti  Ti36      1.0  0.89853  0.24424  0.83091  1.0000
  Ti  Ti37      1.0  0.20262  0.10580  0.57426  1.0000
  Ti  Ti38      1.0  0.84793  0.08138  0.57616  1.0000
  Ti  Ti39      1.0  0.52385  0.61568  0.30039  1.0000
  Ti  Ti40      1.0  0.39649  0.68435  0.82038  1.0000
  Ti  Ti41      1.0  0.56731  0.27712  0.66573  1.0000
  Ti  Ti42      1.0  0.02039  0.80760  0.33728  1.0000
  Ti  Ti43      1.0  0.16760  0.88643  0.56308  1.0000
  Ti  Ti44      1.0  0.52044  0.28329  0.74229  1.0000
  Ti  Ti45      1.0  0.11187  0.30411  0.24974  1.0000
  Ti  Ti46      1.0  0.32973  0.94523  0.42629  1.0000
  Ti  Ti47      1.0  0.85710  0.09730  0.79494  1.0000
  Ti  Ti48      1.0  0.98765  0.96320  0.28840  1.0000
  Ti  Ti49      1.0  0.12663  0.87473  0.12707  1.0000
  Ti  Ti50      1.0  0.63963  0.43819  0.09787  1.0000
  Ti  Ti51      1.0  0.05548  0.06924  0.15839  1.0000
  Ti  Ti52      1.0  0.68779  0.34902  0.42186  1.0000
  Ti  Ti53      1.0  0.43672  0.71832  0.60660  1.0000
  Ti  Ti54      1.0  0.84579  0.81008  0.88547  1.0000
  Ti  Ti55      1.0  0.56498  0.97345  0.49785  1.0000
  Ti  Ti56      1.0  0.32088  0.54066  0.96943  1.0000
  Ti  Ti57      1.0  0.38960  0.23973  0.74452  1.0000
  Ti  Ti58      1.0  0.47033  0.58491  0.38733  1.0000
  Ti  Ti59      1.0  0.88311  0.04614  0.97471  1.0000
  Ti  Ti60      1.0  0.99053  0.50645  0.31043  1.0000
  Ti  Ti61      1.0  0.66036  0.62493  0.56468  1.0000
  Ti  Ti62      1.0  0.73657  0.59926  0.01677  1.0000
  Ti  Ti63      1.0  0.81841  0.89538  0.19153  1.0000
  Ti  Ti64      1.0  0.39866  0.08145  0.42792  1.0000
  Ti  Ti65      1.0  0.00277  0.79654  0.18889  1.0000
  Ti  Ti66      1.0  0.72083  0.26549  0.85946  1.0000
  Ti  Ti67      1.0  0.82888  0.73619  0.05218  1.0000
  Ti  Ti68      1.0  0.34073  0.63747  0.48410  1.0000
  Ti  Ti69      1.0  0.75526  0.88568  0.75115  1.0000
  Ti  Ti70      1.0  0.80611  0.71174  0.94998  1.0000
  Ti  Ti71      1.0  0.13167  0.08324  0.24705  1.0000
  Ti  Ti72      1.0  0.83276  0.06147  0.75917  1.0000
  Ti  Ti73      1.0  0.79831  0.22320  0.12196  1.0000
  Ti  Ti74      1.0  0.42893  0.36397  0.45990  1.0000
  Ti  Ti75      1.0  0.46422  0.00679  0.06210  1.0000
  Ti  Ti76      1.0  0.20809  0.01522  0.04146  1.0000
  Ti  Ti77      1.0  0.23057  0.37974  0.59865  1.0000
  Ti  Ti78      1.0  0.19633  0.73742  0.88011  1.0000
  Ti  Ti79      1.0  0.74803  0.67823  0.70861  1.0000
  Ti  Ti80      1.0  0.98471  0.30094  0.54240  1.0000
  Ti  Ti81      1.0  0.35740  0.87541  0.23523  1.0000
  Ti  Ti82      1.0  0.11631  0.25032  0.83823  1.0000
  Ti  Ti83      1.0  0.15792  0.32612  0.57799  1.0000
  Ti  Ti84      1.0  0.95324  0.18484  0.83235  1.0000
  Ti  Ti85      1.0  0.24088  0.07006  0.57521  1.0000
  Ti  Ti86      1.0  0.71881  0.24362  0.74951  1.0000
  Ti  Ti87      1.0  0.10248  0.26424  0.34875  1.0000
  Ti  Ti88      1.0  0.61260  0.38032  0.40714  1.0000
  Ti  Ti89      1.0  0.50938  0.25332  0.15209  1.0000
  Ti  Ti90      1.0  0.02376  0.77783  0.40129  1.0000
  Ti  Ti91      1.0  0.27699  0.49680  0.33529  1.0000
  Ti  Ti92      1.0  0.32410  0.75142  0.53747  1.0000
  Ti  Ti93      1.0  0.05114  0.37011  0.01561  1.0000
  Ti  Ti94      1.0  0.96251  0.93805  0.26949  1.0000
  Ti  Ti95      1.0  0.33535  0.70910  0.05456  1.0000
  Ti  Ti96      1.0  0.99828  0.17414  0.17378  1.0000
  I   I1        1.0  0.85381  0.12001  0.85602  1.0000
  I   I2        1.0  0.05431  0.10191  0.12977  1.0000
  I   I3        1.0  0.12846  0.84736  0.07951  1.0000
  I   I4        1.0  0.43174  0.68528  0.63046  1.0000
  I   I5        1.0  0.79494  0.86824  0.42335  1.0000
  I   I6        1.0  0.88798  0.78333  0.90918  1.0000
  I   I7        1.0  0.13849  0.56354  0.28810  1.0000
  I   I8        1.0  0.34989  0.50176  0.94438  1.0000
  I   I9        1.0  0.41449  0.20517  0.77903  1.0000
  I   I10       1.0  0.45921  0.53283  0.70563  1.0000
  I   I11       1.0  0.21931  0.41439  0.15912  1.0000
  I   I12       1.0  0.46611  0.50849  0.19951  1.0000
  I   I13       1.0  0.73122  0.53266  0.00765  1.0000
  I   I14       1.0  0.80788  0.91294  0.12037  1.0000
  I   I15       1.0  0.67774  0.62220  0.65091  1.0000
  I   I16       1.0  0.45848  0.48439  0.71516  1.0000
  I   I17       1.0  0.72432  0.23359  0.91150  1.0000
  I   I18       1.0  0.34352  0.07200  0.53220  1.0000
  I   I19       1.0  0.19026  0.87176  0.41407  1.0000
  I   I20       1.0  0.22893  0.38546  0.26877  1.0000
  I   I21       1.0  0.09102  0.53662  0.30942  1.0000
  I   I22       1.0  0.19776  0.08436  0.30726  1.0000
  I   I23       1.0  0.20305  0.08190  0.19225  1.0000
  I   I24       1.0  0.82451  0.73557  0.13112  1.0000
  I   I25       1.0  0.42429  0.38948  0.29523  1.0000
  I   I26       1.0  0.49135  0.97973  0.01518  1.0000
  I   I27       1.0  0.74043  0.19264  0.16989  1.0000
  I   I28       1.0  0.37023  0.01691  0.85945  1.0000
  I   I29       1.0  0.27778  0.72765  0.90551  1.0000
  I   I30       1.0  0.23947  0.84243  0.01742  1.0000
  I   I31       1.0  0.96432  0.28235  0.56724  1.0000
  I   I32       1.0  0.31983  0.95025  0.18805  1.0000
  I   I33       1.0  0.73281  0.69522  0.78072  1.0000
  I   I34       1.0  0.13770  0.31788  0.63278  1.0000
  I   I35       1.0  0.87385  0.28355  0.85649  1.0000
  I   I36       1.0  0.60632  0.55839  0.91338  1.0000
  I   I37       1.0  0.18758  0.14675  0.55252  1.0000
  I   I38       1.0  0.49470  0.64370  0.25318  1.0000
  I   I39       1.0  0.22181  0.08024  0.50738  1.0000
  I   I40       1.0  0.53305  0.31760  0.68711  1.0000
  I   I41       1.0  0.05383  0.74464  0.43775  1.0000
  I   I42       1.0  0.40554  0.64481  0.80208  1.0000
  I   I43       1.0  0.46495  0.60896  0.44349  1.0000
  I   I44       1.0  0.48263  0.31187  0.73140  1.0000
  I   I45       1.0  0.13202  0.32525  0.26531  1.0000
  I   I46       1.0  0.33114  0.68858  0.99139  1.0000
  I   I47       1.0  0.89849  0.07735  0.79516  1.0000
  I   I48       1.0  0.00033  0.95479  0.35643  1.0000
  I   I49       1.0  0.08857  0.88571  0.15461  1.0000
  I   I50       1.0  0.05248  0.06510  0.23412  1.0000
  I   I51       1.0  0.01570  0.08316  0.12068  1.0000
  I   I52       1.0  0.02424  0.27912  0.51615  1.0000
  I   I53       1.0  0.40328  0.74640  0.63723  1.0000
  I   I54       1.0  0.83427  0.80903  0.81790  1.0000
  I   I55       1.0  0.59914  0.93562  0.50580  1.0000
  I   I56       1.0  0.12840  0.53208  0.22183  1.0000
  I   I57       1.0  0.36148  0.22958  0.79110  1.0000
  I   I58       1.0  0.51447  0.46414  0.80464  1.0000
  I   I59       1.0  0.91160  0.05228  0.01137  1.0000
  I   I60       1.0  0.98079  0.54017  0.23609  1.0000
  I   I61       1.0  0.75403  0.62334  0.02622  1.0000
  I   I62       1.0  0.78751  0.51452  0.04423  1.0000
  I   I63       1.0  0.79270  0.91318  0.24731  1.0000
  I   I64       1.0  0.47362  0.57794  0.72659  1.0000
  I   I65       1.0  0.02191  0.77218  0.12938  1.0000
  I   I66       1.0  0.68184  0.29495  0.88571  1.0000
  I   I67       1.0  0.37508  0.58097  0.40886  1.0000
  I   I68       1.0  0.23530  0.83147  0.34820  1.0000
  I   I69       1.0  0.72624  0.88773  0.81792  1.0000
  I   I70       1.0  0.76547  0.72642  0.94166  1.0000
  I   I71       1.0  0.15510  0.06502  0.18852  1.0000
  I   I72       1.0  0.81991  0.10834  0.76432  1.0000
  I   I73       1.0  0.82905  0.22723  0.16134  1.0000
  I   I74       1.0  0.68554  0.96126  0.73879  1.0000
  I   I75       1.0  0.69645  0.89078  0.74119  1.0000
  I   I76       1.0  0.22413  0.38682  0.67544  1.0000
  I   I77       1.0  0.19953  0.41107  0.56598  1.0000
  I   I78       1.0  0.33341  0.80527  0.24865  1.0000
  I   I79       1.0  0.25072  0.64796  0.79988  1.0000
  I   I80       1.0  0.56869  0.13648  0.12218  1.0000
  I   I81       1.0  0.31933  0.87860  0.18532  1.0000
  I   I82       1.0  0.10756  0.23203  0.77753  1.0000
  I   I83       1.0  0.06828  0.39787  0.51266  1.0000
  I   I84       1.0  0.92438  0.26185  0.80866  1.0000
  I   I85       1.0  0.24143  0.10720  0.58926  1.0000
  I   I86       1.0  0.74783  0.27244  0.89340  1.0000
  I   I87       1.0  0.50173  0.64282  0.36403  1.0000
  I   I88       1.0  0.42830  0.69074  0.80095  1.0000
  I   I89       1.0  0.59404  0.27107  0.71626  1.0000
  I   I90       1.0  0.00263  0.79720  0.46293  1.0000
  I   I91       1.0  0.31481  0.47332  0.31437  1.0000
  I   I92       1.0  0.32435  0.72512  0.58580  1.0000
  I   I93       1.0  0.54775  0.29596  0.77150  1.0000
  I   I94       1.0  0.02844  0.95412  0.27237  1.0000
  I   I95       1.0  0.32721  0.98114  0.44819  1.0000
  I   I96       1.0  0.96817  0.21345  0.18226  1.0000
  I   I97       1.0  0.23333  0.21726  0.45647  1.0000
  I   I98       1.0  0.28366  0.80872  0.23290  1.0000
  I   I99       1.0  0.09778  0.03716  0.15368  1.0000
  I   I100      1.0  0.93885  0.73154  0.84839  1.0000
  I   I101      1.0  0.70855  0.30926  0.42857  1.0000
  I   I102      1.0  0.39705  0.52919  0.20287  1.0000
  I   I103      1.0  0.58267  0.89259  0.53234  1.0000
  I   I104      1.0  0.53831  0.01344  0.51430  1.0000
  I   I105      1.0  0.43648  0.24464  0.85734  1.0000
  I   I106      1.0  0.03624  0.54963  0.23173  1.0000
  I   I107      1.0  0.45946  0.52485  0.79714  1.0000
  I   I108      1.0  0.97374  0.56281  0.33367  1.0000
  I   I109      1.0  0.62881  0.62447  0.71503  1.0000
  I   I110      1.0  0.75647  0.57496  0.96113  1.0000
  I   I111      1.0  0.84879  0.90168  0.21259  1.0000
  I   I112      1.0  0.35662  0.10734  0.43810  1.0000
  I   I113      1.0  0.96167  0.81709  0.17514  1.0000
  I   I114      1.0  0.29273  0.41003  0.77626  1.0000
  I   I115      1.0  0.86644  0.72564  0.04112  1.0000
  I   I116      1.0  0.83112  0.66799  0.95446  1.0000
  I   I117      1.0  0.29874  0.61077  0.40730  1.0000
  I   I118      1.0  0.77122  0.57448  0.45533  1.0000
  I   I119      1.0  0.81002  0.70635  0.86954  1.0000
  I   I120      1.0  0.84558  0.06382  0.83264  1.0000
  I   I121      1.0  0.77055  0.20497  0.10413  1.0000
  I   I122      1.0  0.43746  0.41492  0.40197  1.0000
  I   I123      1.0  0.43309  0.03654  0.02263  1.0000
  I   I124      1.0  0.25095  0.88477  0.94916  1.0000
  I   I125      1.0  0.34435  0.99244  0.93591  1.0000
  I   I126      1.0  0.24300  0.72063  0.82193  1.0000
  I   I127      1.0  0.29394  0.59290  0.76645  1.0000
  I   I128      1.0  0.90707  0.73658  0.75347  1.0000
  I   I129      1.0  0.38402  0.88180  0.18759  1.0000
  I   I130      1.0  0.93894  0.16509  0.87777  1.0000
  I   I131      1.0  0.15105  0.21502  0.85720  1.0000
  I   I132      1.0  0.18216  0.28608  0.56516  1.0000
  I   I133      1.0  0.55291  0.62725  0.32917  1.0000
  I   I134      1.0  0.80442  0.09863  0.56801  1.0000
  I   I135      1.0  0.69290  0.25021  0.81560  1.0000
  I   I136      1.0  0.99671  0.76669  0.37729  1.0000
  I   I137      1.0  0.65288  0.35209  0.37047  1.0000
  I   I138      1.0  0.47867  0.27575  0.19204  1.0000
  I   I139      1.0  0.25601  0.47435  0.35345  1.0000
  I   I140      1.0  0.29468  0.75298  0.49757  1.0000
  I   I141      1.0  0.02289  0.40470  0.05768  1.0000
  I   I142      1.0  0.97338  0.96834  0.21523  1.0000
  I   I143      1.0  0.36399  0.92467  0.47403  1.0000
  I   I144      1.0  0.99305  0.16075  0.23884  1.0000
  I   I145      1.0  0.33333  0.74348  0.23361  1.0000
  I   I146      1.0  0.03258  0.00542  0.06373  1.0000
  I   I147      1.0  0.28673  0.16633  0.47368  1.0000
  I   I148      1.0  0.58815  0.40525  0.35950  1.0000
  I   I149      1.0  0.43507  0.51868  0.30909  1.0000
  I   I150      1.0  0.81590  0.88546  0.51648  1.0000
  I   I151      1.0  0.59522  0.98500  0.50161  1.0000
  I   I152      1.0  0.12341  0.59547  0.39191  1.0000
  I   I153      1.0  0.37313  0.28367  0.76108  1.0000
  I   I154      1.0  0.12971  0.88800  0.55067  1.0000
  I   I155      1.0  0.26919  0.40953  0.25450  1.0000
  I   I156      1.0  0.00887  0.47271  0.35627  1.0000
  I   I157      1.0  0.66474  0.57045  0.68930  1.0000
  I   I158      1.0  0.80216  0.87101  0.17514  1.0000
  I   I159      1.0  0.69633  0.58711  0.55863  1.0000
  I   I160      1.0  0.41382  0.10626  0.45228  1.0000
  I   I161      1.0  0.23839  0.41963  0.84337  1.0000
  I   I162      1.0  0.32316  0.07787  0.42814  1.0000
  I   I163      1.0  0.32629  0.56835  0.47857  1.0000
  I   I164      1.0  0.34183  0.67455  0.46592  1.0000
  I   I165      1.0  0.07630  0.61171  0.32630  1.0000
  I   I166      1.0  0.73286  0.64424  0.46163  1.0000
  I   I167      1.0  0.14477  0.11480  0.21143  1.0000
  I   I168      1.0  0.91893  0.75623  0.64811  1.0000
  I   I169      1.0  0.38985  0.38568  0.41331  1.0000
  I   I170      1.0  0.44732  0.36209  0.38496  1.0000
  I   I171      1.0  0.82191  0.21486  0.06022  1.0000
  I   I172      1.0  0.24475  0.98496  0.06371  1.0000
  I   I173      1.0  0.22148  0.69634  0.89894  1.0000
  I   I174      1.0  0.30811  0.82872  0.00033  1.0000
  I   I175      1.0  0.54398  0.18035  0.19516  1.0000
  I   I176      1.0  0.26810  0.93756  0.21466  1.0000
  I   I177      1.0  0.78170  0.64179  0.73240  1.0000
  I   I178      1.0  0.07949  0.28042  0.84943  1.0000
  I   I179      1.0  0.12207  0.39503  0.46533  1.0000
  I   I180      1.0  0.93048  0.21512  0.78499  1.0000
  I   I181      1.0  0.22861  0.03961  0.56981  1.0000
  I   I182      1.0  0.71366  0.28277  0.74721  1.0000
  I   I183      1.0  0.13142  0.28665  0.18835  1.0000
  I   I184      1.0  0.65149  0.35648  0.46054  1.0000
  I   I185      1.0  0.50844  0.21728  0.12926  1.0000
  I   I186      1.0  0.04500  0.82261  0.29291  1.0000
  I   I187      1.0  0.31407  0.78119  0.58735  1.0000
  I   I188      1.0  0.51811  0.25298  0.78237  1.0000
  I   I189      1.0  0.07018  0.32509  0.23407  1.0000
  I   I190      1.0  0.34929  0.94828  0.36579  1.0000
  I   I191      1.0  0.66795  0.44196  0.14048  1.0000
  I   I192      1.0  0.95417  0.92495  0.33504  1.0000
  I   I193      1.0  0.22036  0.75184  0.93945  1.0000
  I   I194      1.0  0.65105  0.39702  0.07453  1.0000
  I   I195      1.0  0.28577  0.21733  0.39528  1.0000
  I   I196      1.0  0.94601  0.68537  0.79120  1.0000
  I   I197      1.0  0.48643  0.54319  0.40463  1.0000
  I   I198      1.0  0.82454  0.82530  0.51391  1.0000
  I   I199      1.0  0.51998  0.93299  0.51534  1.0000
  I   I200      1.0  0.31923  0.53607  0.04313  1.0000
  I   I201      1.0  0.42408  0.24396  0.71240  1.0000
  I   I202      1.0  0.87885  0.01854  0.02342  1.0000
  I   I203      1.0  0.76126  0.85169  0.71005  1.0000
  I   I204      1.0  0.95489  0.51542  0.33253  1.0000
  I   I205      1.0  0.73533  0.53173  0.12371  1.0000
  I   I206      1.0  0.00720  0.79227  0.77086  1.0000
  I   I207      1.0  0.62402  0.64552  0.60818  1.0000
  I   I208      1.0  0.51381  0.48942  0.68911  1.0000
  I   I209      1.0  0.26354  0.36834  0.77630  1.0000
  I   I210      1.0  0.74767  0.67571  0.63589  1.0000
  I   I211      1.0  0.79803  0.72216  0.02676  1.0000
  I   I212      1.0  0.20045  0.81661  0.43090  1.0000
  I   I213      1.0  0.79433  0.88044  0.73173  1.0000
  I   I214      1.0  0.80113  0.61270  0.43537  1.0000
  I   I215      1.0  0.11071  0.11314  0.29766  1.0000
  I   I216      1.0  0.89532  0.82191  0.62132  1.0000
  I   I217      1.0  0.44969  0.38070  0.49462  1.0000
  I   I218      1.0  0.47195  0.03247  0.10183  1.0000
  I   I219      1.0  0.79146  0.20838  0.19643  1.0000
  I   I220      1.0  0.23396  0.34447  0.57082  1.0000
  I   I221      1.0  0.26025  0.76267  0.82007  1.0000
  I   I222      1.0  0.21213  0.01136  0.96669  1.0000
  I   I223      1.0  0.57819  0.13000  0.25734  1.0000
  I   I224      1.0  0.31852  0.90900  0.26148  1.0000
  I   I225      1.0  0.22456  0.60441  0.76585  1.0000
  I   I226      1.0  0.14069  0.26806  0.83166  1.0000
  I   I227      1.0  0.08678  0.42534  0.56176  1.0000
  I   I228      1.0  0.97429  0.15609  0.78033  1.0000
  I   I229      1.0  0.21680  0.08047  0.64644  1.0000
  I   I230      1.0  0.87385  0.04190  0.58844  1.0000
  I   I231      1.0  0.54791  0.58614  0.25765  1.0000
  I   I232      1.0  0.97158  0.75981  0.80063  1.0000
  I   I233      1.0  0.58700  0.24329  0.61904  1.0000
  I   I234      1.0  0.04213  0.80532  0.40246  1.0000
  I   I235      1.0  0.19505  0.84894  0.53559  1.0000
  I   I236      1.0  0.07177  0.34066  0.06989  1.0000
  I   I237      1.0  0.24958  0.51401  0.28314  1.0000
  I   I238      1.0  0.30065  0.71935  0.09393  1.0000
  I   I239      1.0  0.98893  0.16241  0.10591  1.0000
  I   I240      1.0  0.92992  0.94652  0.22323  1.0000
  I   I241      1.0  0.34041  0.77467  0.13766  1.0000
  I   I242      1.0  0.99033  0.06250  0.05013  1.0000
  I   I243      1.0  0.25636  0.17561  0.37132  1.0000
  I   I244      1.0  0.58123  0.38385  0.44590  1.0000
  I   I245      1.0  0.47236  0.72091  0.60877  1.0000
  I   I246      1.0  0.87118  0.83530  0.47629  1.0000
  I   I247      1.0  0.55652  0.90477  0.43339  1.0000
  I   I248      1.0  0.07903  0.58187  0.39839  1.0000
  I   I249      1.0  0.38110  0.26207  0.86005  1.0000
  I   I250      1.0  0.84655  0.07863  0.96468  1.0000
  I   I251      1.0  0.21248  0.45774  0.21610  1.0000
  I   I252      1.0  0.98318  0.59694  0.22153  1.0000
  I   I253      1.0  0.71234  0.58734  0.06565  1.0000
  I   I254      1.0  0.03003  0.72908  0.74551  1.0000
  I   I255      1.0  0.65101  0.57768  0.59189  1.0000
  I   I256      1.0  0.99493  0.83940  0.17699  1.0000
  I   I257      1.0  0.22351  0.44206  0.75143  1.0000
  I   I258      1.0  0.39899  0.08468  0.35463  1.0000
  I   I259      1.0  0.81153  0.77536  0.03233  1.0000
  I   I260      1.0  0.33426  0.63379  0.40437  1.0000
  I   I261      1.0  0.12705  0.52978  0.37391  1.0000
  I   I262      1.0  0.75765  0.61267  0.35487  1.0000
  I   I263      1.0  0.19857  0.04025  0.24695  1.0000
  I   I264      1.0  0.95922  0.77871  0.64855  1.0000
  I   I265      1.0  0.37865  0.43873  0.35070  1.0000
  I   I266      1.0  0.67289  0.93684  0.82713  1.0000
  I   I267      1.0  0.76780  0.25661  0.09322  1.0000
  I   I268      1.0  0.38790  0.95491  0.85941  1.0000
  I   I269      1.0  0.19990  0.76978  0.84078  1.0000
  I   I270      1.0  0.17596  0.01050  0.07434  1.0000
  I   I271      1.0  0.61189  0.15647  0.18130  1.0000
  I   I272      1.0  0.37616  0.87007  0.30164  1.0000
  I   I273      1.0  0.24757  0.62518  0.68135  1.0000
  I   I274      1.0  0.63668  0.52689  0.79608  1.0000
  I   I275      1.0  0.13661  0.33727  0.50116  1.0000
  I   I276      1.0  0.91469  0.22397  0.89180  1.0000
  I   I277      1.0  0.10967  0.22689  0.89410  1.0000
  I   I278      1.0  0.86503  0.08284  0.51075  1.0000
  I   I279      1.0  0.12132  0.29197  0.33347  1.0000
  I   I280      1.0  0.71372  0.35830  0.46133  1.0000
  I   I281      1.0  0.57705  0.30169  0.61443  1.0000
  I   I282      1.0  0.99766  0.81078  0.26513  1.0000
  I   I283      1.0  0.16426  0.92209  0.53437  1.0000
  I   I284      1.0  0.03917  0.34628  0.97714  1.0000
  I   I285      1.0  0.08968  0.27627  0.42037  1.0000
  I   I286      1.0  0.32995  0.74641  0.03573  1.0000
  I   I287      1.0  0.86743  0.05839  0.73037  1.0000
  I   I288      1.0  0.00279  0.91057  0.26661  1.0000
  I   I289      1.0  0.13503  0.89904  0.08737  1.0000
  I   I290      1.0  0.61034  0.43819  0.14277  1.0000
  I   I291      1.0  0.05894  0.04395  0.02715  1.0000
  I   I292      1.0  0.69570  0.35021  0.35241  1.0000
  I   I293      1.0  0.42054  0.72356  0.53518  1.0000
  I   I294      1.0  0.83832  0.84742  0.90152  1.0000
  I   I295      1.0  0.54348  0.95960  0.55106  1.0000
  I   I296      1.0  0.34346  0.55837  0.97349  1.0000
  I   I297      1.0  0.41672  0.28986  0.78764  1.0000
  I   I298      1.0  0.50225  0.57806  0.33940  1.0000
  I   I299      1.0  0.51729  0.54557  0.65264  1.0000
  I   I300      1.0  0.99243  0.47964  0.25737  1.0000
  I   I301      1.0  0.63886  0.62119  0.51221  1.0000
  I   I302      1.0  0.76011  0.57779  0.08178  1.0000
  I   I303      1.0  0.36732  0.71069  0.77766  1.0000
  I   I304      1.0  0.39566  0.06613  0.50551  1.0000
  I   I305      1.0  0.51476  0.52917  0.77944  1.0000
  I   I306      1.0  0.75121  0.21905  0.70814  1.0000
  I   I307      1.0  0.30371  0.66941  0.51450  1.0000
  I   I308      1.0  0.25780  0.81894  0.45803  1.0000
  I   I309      1.0  0.16931  0.50001  0.30432  1.0000
  I   I310      1.0  0.19138  0.87171  0.62593  1.0000
  I   I311      1.0  0.10014  0.08279  0.21481  1.0000
  I   I312      1.0  0.85601  0.12753  0.74872  1.0000
  I   I313      1.0  0.73589  0.23209  0.24497  1.0000
  I   I314      1.0  0.40166  0.36426  0.51002  1.0000
  I   I315      1.0  0.44513  0.99904  0.11916  1.0000
  I   I316      1.0  0.20485  0.05298  0.04756  1.0000
  I   I317      1.0  0.33279  0.99369  0.80099  1.0000
  I   I318      1.0  0.16811  0.75110  0.93721  1.0000
  I   I319      1.0  0.72779  0.72194  0.68739  1.0000
  I   I320      1.0  0.97133  0.71733  0.72290  1.0000
  I   I321      1.0  0.31785  0.90916  0.10775  1.0000
  I   I322      1.0  0.59570  0.51442  0.85359  1.0000
  I   I323      1.0  0.18616  0.32964  0.62159  1.0000
  I   I324      1.0  0.97971  0.20035  0.84501  1.0000
  I   I325      1.0  0.28483  0.04712  0.58326  1.0000
  I   I326      1.0  0.74329  0.23302  0.81025  1.0000
  I   I327      1.0  0.11633  0.22107  0.34704  1.0000
  I   I328      1.0  0.39177  0.69692  0.88941  1.0000
  I   I329      1.0  0.54525  0.24249  0.18754  1.0000
  I   I330      1.0  0.03885  0.76992  0.31351  1.0000
  I   I331      1.0  0.06300  0.29160  0.33522  1.0000
  I   I332      1.0  0.44503  0.58851  0.33289  1.0000
  I   I333      1.0  0.53872  0.25940  0.67578  1.0000
  I   I334      1.0  0.98916  0.99951  0.28560  1.0000
  I   I335      1.0  0.31168  0.91971  0.42665  1.0000
  I   I336      1.0  0.03380  0.17380  0.17849  1.0000
  I   I337      1.0  0.16035  0.85397  0.17194  1.0000
  I   I338      1.0  0.61719  0.47625  0.06662  1.0000
  I   I339      1.0  0.04151  0.03463  0.15259  1.0000
  I   I340      1.0  0.96453  0.32610  0.49188  1.0000
  I   I341      1.0  0.45196  0.46567  0.24686  1.0000
  I   I342      1.0  0.83309  0.79243  0.93429  1.0000
  I   I343      1.0  0.54829  0.96289  0.43704  1.0000
  I   I344      1.0  0.28839  0.54836  0.92086  1.0000
  I   I345      1.0  0.38514  0.22746  0.67306  1.0000
  I   I346      1.0  0.82723  0.73411  0.95935  1.0000
  I   I347      1.0  0.90255  0.02935  0.91144  1.0000
  I   I348      1.0  0.02673  0.51660  0.30550  1.0000
  I   I349      1.0  0.67424  0.64498  0.51849  1.0000
  I   I350      1.0  0.70472  0.62556  0.98275  1.0000
  I   I351      1.0  0.02099  0.75105  0.86451  1.0000
  I   I352      1.0  0.38832  0.04471  0.39829  1.0000
  I   I353      1.0  0.03901  0.80220  0.18478  1.0000
  I   I354      1.0  0.69299  0.24390  0.69525  1.0000
  I   I355      1.0  0.34493  0.59891  0.52865  1.0000
  I   I356      1.0  0.37022  0.63747  0.52565  1.0000
  I   I357      1.0  0.75027  0.91978  0.78523  1.0000
  I   I358      1.0  0.90284  0.80470  0.73118  1.0000
  I   I359      1.0  0.14724  0.05273  0.29496  1.0000
  I   I360      1.0  0.84029  0.01894  0.75968  1.0000
  I   I361      1.0  0.71900  0.25564  0.12487  1.0000
  I   I362      1.0  0.45226  0.32236  0.46751  1.0000
  I   I363      1.0  0.72872  0.90996  0.69497  1.0000
  I   I364      1.0  0.26177  0.83029  0.92036  1.0000
  I   I365      1.0  0.26851  0.37108  0.58627  1.0000
  I   I366      1.0  0.17266  0.73436  0.83025  1.0000
  I   I367      1.0  0.70998  0.68084  0.72189  1.0000
  I   I368      1.0  0.97923  0.32495  0.59851  1.0000
  I   I369      1.0  0.35507  0.84193  0.24302  1.0000
  I   I370      1.0  0.65147  0.49207  0.90570  1.0000
  I   I371      1.0  0.13342  0.36889  0.58902  1.0000
  I   I372      1.0  0.86348  0.26158  0.77873  1.0000
  I   I373      1.0  0.16839  0.10773  0.57760  1.0000
  I   I374      1.0  0.86464  0.09588  0.61933  1.0000
  I   I375      1.0  0.10479  0.26630  0.26549  1.0000
  I   I376      1.0  0.61551  0.41028  0.44587  1.0000
  I   I377      1.0  0.51290  0.27607  0.09053  1.0000
  I   I378      1.0  0.98466  0.82287  0.37563  1.0000
  I   I379      1.0  0.27419  0.51063  0.40476  1.0000
  I   I380      1.0  0.35901  0.74199  0.50002  1.0000
  I   I381      1.0  0.07134  0.37569  0.96095  1.0000
  I   I382      1.0  0.93707  0.97982  0.30078  1.0000
  I   I383      1.0  0.36212  0.70742  0.11028  1.0000
  I   I384      1.0  0.79596  0.06847  0.72496  1.0000
