data_image0
_chemical_formula_structural       Ti96I384
_chemical_formula_sum              "Ti96 I384"
_cell_length_a       66.4422
_cell_length_b       66.3156
_cell_length_c       32.4462
_cell_angle_alpha    88.7757
_cell_angle_beta     88.7757
_cell_angle_gamma    62.1586

_space_group_name_H-M_alt    "P 1"
_space_group_IT_number       1

loop_
  _space_group_symop_operation_xyz
  'x, y, z'

loop_
  _atom_site_type_symbol
  _atom_site_label
  _atom_site_symmetry_multiplicity
  _atom_site_fract_x
  _atom_site_fract_y
  _atom_site_fract_z
  _atom_site_occupancy
  Ti  Ti1       1.0  0.37025  0.73908  0.41058  1.0000
  Ti  Ti2       1.0  0.56185  0.01180  0.01575  1.0000
  Ti  Ti3       1.0  0.72890  0.91905  0.35513  1.0000
  Ti  Ti4       1.0  0.05518  0.99770  0.87807  1.0000
  Ti  Ti5       1.0  0.76881  0.79281  0.62299  1.0000
  Ti  Ti6       1.0  0.26277  0.44035  0.60142  1.0000
  Ti  Ti7       1.0  0.86563  0.24951  0.36868  1.0000
  Ti  Ti8       1.0  0.39762  0.10300  0.82426  1.0000
  Ti  Ti9       1.0  0.28053  0.90989  0.89422  1.0000
  Ti  Ti10      1.0  0.73125  0.98471  0.15517  1.0000
  Ti  Ti11      1.0  0.01554  0.26554  0.15475  1.0000
  Ti  Ti12      1.0  0.16078  0.57519  0.43760  1.0000
  Ti  Ti13      1.0  0.14892  0.05580  0.81580  1.0000
  Ti  Ti14      1.0  0.06970  0.03944  0.51096  1.0000
  Ti  Ti15      1.0  0.60074  0.11953  0.70308  1.0000
  Ti  Ti16      1.0  0.72520  0.04563  0.12293  1.0000
  Ti  Ti17      1.0  0.31718  0.06260  0.29692  1.0000
  Ti  Ti18      1.0  0.06806  0.76106  0.27810  1.0000
  Ti  Ti19      1.0  0.54729  0.53885  0.25268  1.0000
  Ti  Ti20      1.0  0.34998  0.86138  0.61668  1.0000
  Ti  Ti21      1.0  0.34481  0.04358  0.80355  1.0000
  Ti  Ti22      1.0  0.67310  0.59667  0.02736  1.0000
  Ti  Ti23      1.0  0.52249  0.07661  0.63424  1.0000
  Ti  Ti24      1.0  0.23579  0.72918  0.52890  1.0000
  Ti  Ti25      1.0  0.64963  0.77344  0.80901  1.0000
  Ti  Ti26      1.0  0.41849  0.86014  0.20154  1.0000
  Ti  Ti27      1.0  0.81107  0.96901  0.48933  1.0000
  Ti  Ti28      1.0  0.67450  0.49537  0.66282  1.0000
  Ti  Ti29      1.0  0.87355  0.91805  0.85166  1.0000
  Ti  Ti30      1.0  0.11500  0.20311  0.51563  1.0000
  Ti  Ti31      1.0  0.99628  0.98583  0.23239  1.0000
  Ti  Ti32      1.0  0.71917  0.34785  0.12501  1.0000
  Ti  Ti33      1.0  0.11621  0.88360  0.18970  1.0000
  Ti  Ti34      1.0  0.50682  0.42069  0.99107  1.0000
  Ti  Ti35      1.0  0.68333  0.55482  0.27136  1.0000
  Ti  Ti36      1.0  0.74250  0.88470  0.93426  1.0000
  Ti  Ti37      1.0  0.05567  0.49006  0.40995  1.0000
  Ti  Ti38      1.0  0.58132  0.29425  0.08598  1.0000
  Ti  Ti39      1.0  0.98035  0.67282  0.10703  1.0000
  Ti  Ti40      1.0  0.27840  0.17636  0.93569  1.0000
  Ti  Ti41      1.0  0.52976  0.71017  0.77336  1.0000
  Ti  Ti42      1.0  0.81829  0.47674  0.18392  1.0000
  Ti  Ti43      1.0  0.62404  0.17393  0.31567  1.0000
  Ti  Ti44      1.0  0.86435  0.44547  0.70670  1.0000
  Ti  Ti45      1.0  0.32694  0.62690  0.51200  1.0000
  Ti  Ti46      1.0  0.39464  0.46939  0.47215  1.0000
  Ti  Ti47      1.0  0.21122  0.49458  0.15618  1.0000
  Ti  Ti48      1.0  0.54926  0.38513  0.66292  1.0000
  Ti  Ti49      1.0  0.70242  0.66466  0.56359  1.0000
  Ti  Ti50      1.0  0.03189  0.26322  0.86555  1.0000
  Ti  Ti51      1.0  0.53372  0.00276  0.09701  1.0000
  Ti  Ti52      1.0  0.01158  0.02331  0.97904  1.0000
  Ti  Ti53      1.0  0.43243  0.65018  0.83280  1.0000
  Ti  Ti54      1.0  0.29785  0.45165  0.62858  1.0000
  Ti  Ti55      1.0  0.88765  0.18794  0.37557  1.0000
  Ti  Ti56      1.0  0.42512  0.39454  0.72540  1.0000
  Ti  Ti57      1.0  0.27786  0.86662  0.86798  1.0000
  Ti  Ti58      1.0  0.67424  0.18073  0.37787  1.0000
  Ti  Ti59      1.0  0.17982  0.26389  0.73647  1.0000
  Ti  Ti60      1.0  0.09884  0.57276  0.45308  1.0000
  Ti  Ti61      1.0  0.64951  0.08119  0.67615  1.0000
  Ti  Ti62      1.0  0.15793  0.08029  0.72162  1.0000
  Ti  Ti63      1.0  0.99752  0.07795  0.53750  1.0000
  Ti  Ti64      1.0  0.12616  0.71555  0.27394  1.0000
  Ti  Ti65      1.0  0.04998  0.34766  0.67174  1.0000
  Ti  Ti66      1.0  0.49666  0.32970  0.16792  1.0000
  Ti  Ti67      1.0  0.55515  0.51608  0.13318  1.0000
  Ti  Ti68      1.0  0.03746  0.39242  0.09832  1.0000
  Ti  Ti69      1.0  0.39716  0.98454  0.88661  1.0000
  Ti  Ti70      1.0  0.65199  0.60512  0.91920  1.0000
  Ti  Ti71      1.0  0.49805  0.02543  0.67041  1.0000
  Ti  Ti72      1.0  0.12245  0.09264  0.16741  1.0000
  Ti  Ti73      1.0  0.81465  0.01129  0.57620  1.0000
  Ti  Ti74      1.0  0.61028  0.84081  0.84964  1.0000
  Ti  Ti75      1.0  0.36410  0.88682  0.30752  1.0000
  Ti  Ti76      1.0  0.13512  0.14999  0.43017  1.0000
  Ti  Ti77      1.0  0.71675  0.44993  0.70966  1.0000
  Ti  Ti78      1.0  0.90125  0.96582  0.78481  1.0000
  Ti  Ti79      1.0  0.56106  0.43644  0.23898  1.0000
  Ti  Ti80      1.0  0.78829  0.10199  0.73281  1.0000
  Ti  Ti81      1.0  0.75075  0.34839  0.21759  1.0000
  Ti  Ti82      1.0  0.47879  0.49489  0.94801  1.0000
  Ti  Ti83      1.0  0.67987  0.50424  0.22885  1.0000
  Ti  Ti84      1.0  0.76760  0.81568  0.89541  1.0000
  Ti  Ti85      1.0  0.02438  0.51909  0.31005  1.0000
  Ti  Ti86      1.0  0.56060  0.31828  0.20061  1.0000
  Ti  Ti87      1.0  0.96267  0.62029  0.12991  1.0000
  Ti  Ti88      1.0  0.60679  0.74326  0.35137  1.0000
  Ti  Ti89      1.0  0.50729  0.69306  0.65018  1.0000
  Ti  Ti90      1.0  0.80510  0.45251  0.07668  1.0000
  Ti  Ti91      1.0  0.29286  0.65175  0.40199  1.0000
  Ti  Ti92      1.0  0.00821  0.81297  0.93907  1.0000
  Ti  Ti93      1.0  0.91492  0.41463  0.66996  1.0000
  Ti  Ti94      1.0  0.55483  0.33270  0.60877  1.0000
  Ti  Ti95      1.0  0.41160  0.49306  0.37181  1.0000
  Ti  Ti96      1.0  0.16695  0.53687  0.09073  1.0000
  I   I1        1.0  0.15875  0.58004  0.08568  1.0000
  I   I2        1.0  0.57057  0.01294  0.10669  1.0000
  I   I3        1.0  0.67254  0.65395  0.52574  1.0000
  I   I4        1.0  0.43662  0.68497  0.86755  1.0000
  I   I5        1.0  0.24972  0.45710  0.67696  1.0000
  I   I6        1.0  0.32884  0.40788  0.63914  1.0000
  I   I7        1.0  0.43837  0.08053  0.79849  1.0000
  I   I8        1.0  0.39732  0.43760  0.75803  1.0000
  I   I9        1.0  0.30393  0.87071  0.92340  1.0000
  I   I10       1.0  0.76825  0.03464  0.12320  1.0000
  I   I11       1.0  0.99485  0.26324  0.09137  1.0000
  I   I12       1.0  0.74417  0.83176  0.65867  1.0000
  I   I13       1.0  0.17715  0.03313  0.73247  1.0000
  I   I14       1.0  0.03088  0.03305  0.52669  1.0000
  I   I15       1.0  0.55600  0.13536  0.71552  1.0000
  I   I16       1.0  0.68072  0.07983  0.12908  1.0000
  I   I17       1.0  0.47327  0.36239  0.11741  1.0000
  I   I18       1.0  0.13552  0.70292  0.34914  1.0000
  I   I19       1.0  0.36447  0.88536  0.65270  1.0000
  I   I20       1.0  0.02785  0.22730  0.19827  1.0000
  I   I21       1.0  0.31353  0.09014  0.81804  1.0000
  I   I22       1.0  0.54891  0.06351  0.56523  1.0000
  I   I23       1.0  0.47806  0.01805  0.73502  1.0000
  I   I24       1.0  0.60977  0.61835  0.88256  1.0000
  I   I25       1.0  0.57944  0.84024  0.89635  1.0000
  I   I26       1.0  0.36662  0.90588  0.37714  1.0000
  I   I27       1.0  0.83230  0.01231  0.49706  1.0000
  I   I28       1.0  0.68148  0.44480  0.68873  1.0000
  I   I29       1.0  0.87875  0.99543  0.84430  1.0000
  I   I30       1.0  0.15834  0.15708  0.48987  1.0000
  I   I31       1.0  0.77220  0.07944  0.69145  1.0000
  I   I32       1.0  0.75179  0.38669  0.21225  1.0000
  I   I33       1.0  0.60461  0.41792  0.20167  1.0000
  I   I34       1.0  0.69815  0.47448  0.17468  1.0000
  I   I35       1.0  0.77433  0.89164  0.96378  1.0000
  I   I36       1.0  0.55240  0.39613  0.99240  1.0000
  I   I37       1.0  0.02949  0.55117  0.27229  1.0000
  I   I38       1.0  0.97163  0.64811  0.17800  1.0000
  I   I39       1.0  0.03140  0.53913  0.38330  1.0000
  I   I40       1.0  0.53725  0.66302  0.60053  1.0000
  I   I41       1.0  0.83320  0.42116  0.03198  1.0000
  I   I42       1.0  0.30679  0.17909  0.87921  1.0000
  I   I43       1.0  0.70643  0.17496  0.32635  1.0000
  I   I44       1.0  0.87714  0.40236  0.66752  1.0000
  I   I45       1.0  0.27881  0.64141  0.47829  1.0000
  I   I46       1.0  0.38463  0.49370  0.31963  1.0000
  I   I47       1.0  0.18903  0.50175  0.22617  1.0000
  I   I48       1.0  0.50725  0.39807  0.68971  1.0000
  I   I49       1.0  0.73949  0.63553  0.52778  1.0000
  I   I50       1.0  0.56271  0.97570  0.97573  1.0000
  I   I51       1.0  0.52014  0.02716  0.02835  1.0000
  I   I52       1.0  0.00644  0.02730  0.89533  1.0000
  I   I53       1.0  0.43856  0.63702  0.75686  1.0000
  I   I54       1.0  0.30141  0.45012  0.71488  1.0000
  I   I55       1.0  0.84386  0.28947  0.33168  1.0000
  I   I56       1.0  0.37513  0.14707  0.79671  1.0000
  I   I57       1.0  0.25550  0.93405  0.95719  1.0000
  I   I58       1.0  0.74568  0.94342  0.12230  1.0000
  I   I59       1.0  0.18440  0.23257  0.68278  1.0000
  I   I60       1.0  0.10561  0.54008  0.41805  1.0000
  I   I61       1.0  0.19555  0.07554  0.68776  1.0000
  I   I62       1.0  0.13084  0.02933  0.80886  1.0000
  I   I63       1.0  0.10003  0.01892  0.56449  1.0000
  I   I64       1.0  0.71891  0.01533  0.08292  1.0000
  I   I65       1.0  0.03275  0.31950  0.67886  1.0000
  I   I66       1.0  0.46094  0.33664  0.21107  1.0000
  I   I67       1.0  0.51934  0.54788  0.17420  1.0000
  I   I68       1.0  0.30900  0.88163  0.64398  1.0000
  I   I69       1.0  0.42719  0.94427  0.87659  1.0000
  I   I70       1.0  0.67353  0.56685  0.88639  1.0000
  I   I71       1.0  0.49288  0.11766  0.65144  1.0000
  I   I72       1.0  0.14214  0.04871  0.16542  1.0000
  I   I73       1.0  0.79339  0.05936  0.59084  1.0000
  I   I74       1.0  0.41800  0.82452  0.17036  1.0000
  I   I75       1.0  0.37197  0.87417  0.20701  1.0000
  I   I76       1.0  0.64384  0.50370  0.71921  1.0000
  I   I77       1.0  0.75996  0.42096  0.70128  1.0000
  I   I78       1.0  0.91831  0.95482  0.70612  1.0000
  I   I79       1.0  0.10838  0.86279  0.12748  1.0000
  I   I80       1.0  0.95984  0.02415  0.22090  1.0000
  I   I81       1.0  0.79490  0.32558  0.21616  1.0000
  I   I82       1.0  0.43864  0.50513  0.93145  1.0000
  I   I83       1.0  0.64614  0.54611  0.24984  1.0000
  I   I84       1.0  0.78228  0.85506  0.88109  1.0000
  I   I85       1.0  0.99244  0.51628  0.36380  1.0000
  I   I86       1.0  0.53645  0.31812  0.11536  1.0000
  I   I87       1.0  0.96543  0.68475  0.03450  1.0000
  I   I88       1.0  0.25387  0.21740  0.95495  1.0000
  I   I89       1.0  0.48577  0.66728  0.66081  1.0000
  I   I90       1.0  0.76752  0.46136  0.04626  1.0000
  I   I91       1.0  0.31049  0.65649  0.33660  1.0000
  I   I92       1.0  0.00273  0.78272  0.98267  1.0000
  I   I93       1.0  0.85121  0.43390  0.77290  1.0000
  I   I94       1.0  0.55547  0.39335  0.73937  1.0000
  I   I95       1.0  0.35357  0.49471  0.45662  1.0000
  I   I96       1.0  0.16703  0.51816  0.01730  1.0000
  I   I97       1.0  0.69023  0.91668  0.36519  1.0000
  I   I98       1.0  0.38077  0.74567  0.33631  1.0000
  I   I99       1.0  0.60822  0.98940  0.00250  1.0000
  I   I100      1.0  0.08767  0.01736  0.88525  1.0000
  I   I101      1.0  0.98220  0.07202  0.98121  1.0000
  I   I102      1.0  0.79203  0.77410  0.69289  1.0000
  I   I103      1.0  0.91006  0.15701  0.32119  1.0000
  I   I104      1.0  0.83001  0.24785  0.39845  1.0000
  I   I105      1.0  0.27691  0.83139  0.91345  1.0000
  I   I106      1.0  0.15417  0.61314  0.47885  1.0000
  I   I107      1.0  0.70972  0.98150  0.21982  1.0000
  I   I108      1.0  0.18760  0.58284  0.38056  1.0000
  I   I109      1.0  0.63285  0.13175  0.67130  1.0000
  I   I110      1.0  0.13697  0.10533  0.65362  1.0000
  I   I111      1.0  0.08415  0.01416  0.44214  1.0000
  I   I112      1.0  0.07042  0.72260  0.30020  1.0000
  I   I113      1.0  0.08612  0.35451  0.66715  1.0000
  I   I114      1.0  0.34734  0.07471  0.26546  1.0000
  I   I115      1.0  0.57948  0.52573  0.19670  1.0000
  I   I116      1.0  0.51105  0.53849  0.29770  1.0000
  I   I117      1.0  0.05955  0.41267  0.06578  1.0000
  I   I118      1.0  0.64750  0.63781  0.98419  1.0000
  I   I119      1.0  0.66373  0.62723  0.85379  1.0000
  I   I120      1.0  0.15336  0.10356  0.17299  1.0000
  I   I121      1.0  0.82152  0.96879  0.57783  1.0000
  I   I122      1.0  0.62148  0.75790  0.79317  1.0000
  I   I123      1.0  0.39889  0.89631  0.26456  1.0000
  I   I124      1.0  0.14371  0.10882  0.43580  1.0000
  I   I125      1.0  0.67142  0.53888  0.66050  1.0000
  I   I126      1.0  0.86789  0.95271  0.90151  1.0000
  I   I127      1.0  0.15642  0.85463  0.22518  1.0000
  I   I128      1.0  0.79299  0.13907  0.71298  1.0000
  I   I129      1.0  0.74033  0.34804  0.29167  1.0000
  I   I130      1.0  0.72940  0.85615  0.88192  1.0000
  I   I131      1.0  0.47051  0.47204  0.02063  1.0000
  I   I132      1.0  0.69734  0.52995  0.17628  1.0000
  I   I133      1.0  0.02439  0.65447  0.09656  1.0000
  I   I134      1.0  0.62112  0.25792  0.05868  1.0000
  I   I135      1.0  0.59148  0.27716  0.16851  1.0000
  I   I136      1.0  0.78416  0.51845  0.19456  1.0000
  I   I137      1.0  0.57166  0.75819  0.39893  1.0000
  I   I138      1.0  0.51301  0.71732  0.84963  1.0000
  I   I139      1.0  0.37290  0.61647  0.51615  1.0000
  I   I140      1.0  0.04044  0.81746  0.97283  1.0000
  I   I141      1.0  0.91174  0.41226  0.75620  1.0000
  I   I142      1.0  0.53741  0.42818  0.62852  1.0000
  I   I143      1.0  0.40719  0.53450  0.34928  1.0000
  I   I144      1.0  0.16943  0.49524  0.12637  1.0000
  I   I145      1.0  0.33839  0.78033  0.42693  1.0000
  I   I146      1.0  0.56162  0.04448  0.97245  1.0000
  I   I147      1.0  0.71581  0.96256  0.33990  1.0000
  I   I148      1.0  0.05499  0.98307  0.95913  1.0000
  I   I149      1.0  0.79480  0.79820  0.56380  1.0000
  I   I150      1.0  0.22725  0.45609  0.55250  1.0000
  I   I151      1.0  0.91992  0.16592  0.43094  1.0000
  I   I152      1.0  0.36865  0.08985  0.80835  1.0000
  I   I153      1.0  0.27060  0.84687  0.79101  1.0000
  I   I154      1.0  0.66339  0.22759  0.39128  1.0000
  I   I155      1.0  0.05172  0.27487  0.14040  1.0000
  I   I156      1.0  0.06659  0.61622  0.45343  1.0000
  I   I157      1.0  0.59280  0.14985  0.76223  1.0000
  I   I158      1.0  0.98824  0.11322  0.58721  1.0000
  I   I159      1.0  0.68006  0.07402  0.61718  1.0000
  I   I160      1.0  0.09299  0.73784  0.20029  1.0000
  I   I161      1.0  0.32629  0.04339  0.37207  1.0000
  I   I162      1.0  0.13595  0.67574  0.23679  1.0000
  I   I163      1.0  0.57510  0.52301  0.31454  1.0000
  I   I164      1.0  0.04403  0.36405  0.03777  1.0000
  I   I165      1.0  0.34998  0.04720  0.72762  1.0000
  I   I166      1.0  0.69721  0.55564  0.03869  1.0000
  I   I167      1.0  0.54819  0.05184  0.69205  1.0000
  I   I168      1.0  0.21157  0.77031  0.54732  1.0000
  I   I169      1.0  0.59117  0.87946  0.80164  1.0000
  I   I170      1.0  0.68060  0.77309  0.75390  1.0000
  I   I171      1.0  0.77574  0.02896  0.53171  1.0000
  I   I172      1.0  0.09904  0.17472  0.37685  1.0000
  I   I173      1.0  0.91240  0.90072  0.80988  1.0000
  I   I174      1.0  0.07672  0.23809  0.53727  1.0000
  I   I175      1.0  0.00610  0.96002  0.16134  1.0000
  I   I176      1.0  0.75566  0.34851  0.10483  1.0000
  I   I177      1.0  0.56719  0.44482  0.31177  1.0000
  I   I178      1.0  0.47434  0.52980  0.99701  1.0000
  I   I179      1.0  0.64703  0.49486  0.22619  1.0000
  I   I180      1.0  0.80922  0.79227  0.91911  1.0000
  I   I181      1.0  0.01578  0.49439  0.25143  1.0000
  I   I182      1.0  0.53109  0.29647  0.22158  1.0000
  I   I183      1.0  0.93258  0.61704  0.17410  1.0000
  I   I184      1.0  0.59884  0.73867  0.27565  1.0000
  I   I185      1.0  0.53875  0.66583  0.76765  1.0000
  I   I186      1.0  0.81530  0.48333  0.04645  1.0000
  I   I187      1.0  0.01181  0.80924  0.86150  1.0000
  I   I188      1.0  0.82522  0.46987  0.66634  1.0000
  I   I189      1.0  0.32846  0.64923  0.44227  1.0000
  I   I190      1.0  0.44618  0.46948  0.32524  1.0000
  I   I191      1.0  0.01367  0.29687  0.92041  1.0000
  I   I192      1.0  0.52343  0.32156  0.60247  1.0000
  I   I193      1.0  0.40455  0.73348  0.46494  1.0000
  I   I194      1.0  0.99024  0.26928  0.84080  1.0000
  I   I195      1.0  0.74787  0.89191  0.29334  1.0000
  I   I196      1.0  0.05949  0.99782  0.79515  1.0000
  I   I197      1.0  0.65573  0.18654  0.28326  1.0000
  I   I198      1.0  0.29257  0.44079  0.54362  1.0000
  I   I199      1.0  0.91121  0.20948  0.35448  1.0000
  I   I200      1.0  0.43716  0.41170  0.65722  1.0000
  I   I201      1.0  0.24738  0.94217  0.84704  1.0000
  I   I202      1.0  0.15415  0.26845  0.80291  1.0000
  I   I203      1.0  0.36001  0.98095  0.89713  1.0000
  I   I204      1.0  0.19319  0.53769  0.46843  1.0000
  I   I205      1.0  0.11710  0.08476  0.75240  1.0000
  I   I206      1.0  0.96193  0.07344  0.55921  1.0000
  I   I207      1.0  0.65385  0.04002  0.70134  1.0000
  I   I208      1.0  0.72582  0.07064  0.05915  1.0000
  I   I209      1.0  0.33470  0.02660  0.24853  1.0000
  I   I210      1.0  0.06610  0.76993  0.35864  1.0000
  I   I211      1.0  0.59826  0.49293  0.10021  1.0000
  I   I212      1.0  0.37571  0.82121  0.65407  1.0000
  I   I213      1.0  0.41129  0.99025  0.95632  1.0000
  I   I214      1.0  0.71864  0.59584  0.01824  1.0000
  I   I215      1.0  0.50233  0.05720  0.58655  1.0000
  I   I216      1.0  0.27105  0.72742  0.56779  1.0000
  I   I217      1.0  0.61603  0.81535  0.77087  1.0000
  I   I218      1.0  0.32430  0.91683  0.28235  1.0000
  I   I219      1.0  0.79907  0.98598  0.41820  1.0000
  I   I220      1.0  0.64066  0.51530  0.60547  1.0000
  I   I221      1.0  0.88002  0.88408  0.90499  1.0000
  I   I222      1.0  0.09925  0.17129  0.49840  1.0000
  I   I223      1.0  0.02717  0.99818  0.24882  1.0000
  I   I224      1.0  0.70589  0.32031  0.08910  1.0000
  I   I225      1.0  0.11852  0.91263  0.13818  1.0000
  I   I226      1.0  0.49719  0.50778  0.88532  1.0000
  I   I227      1.0  0.72101  0.55634  0.26821  1.0000
  I   I228      1.0  0.76061  0.85073  0.99429  1.0000
  I   I229      1.0  0.07507  0.44486  0.39032  1.0000
  I   I230      1.0  0.56578  0.27228  0.03789  1.0000
  I   I231      1.0  0.98636  0.57498  0.11700  1.0000
  I   I232      1.0  0.03370  0.08514  0.50720  1.0000
  I   I233      1.0  0.57010  0.70356  0.78780  1.0000
  I   I234      1.0  0.83439  0.43267  0.14986  1.0000
  I   I235      1.0  0.64431  0.13908  0.25740  1.0000
  I   I236      1.0  0.95529  0.38245  0.68071  1.0000
  I   I237      1.0  0.29459  0.61232  0.36795  1.0000
  I   I238      1.0  0.40132  0.48209  0.54553  1.0000
  I   I239      1.0  0.12251  0.54846  0.10617  1.0000
  I   I240      1.0  0.59054  0.34783  0.64371  1.0000
  I   I241      1.0  0.71518  0.69376  0.53363  1.0000
  I   I242      1.0  0.54707  0.96244  0.14873  1.0000
  I   I243      1.0  0.75641  0.91900  0.40386  1.0000
  I   I244      1.0  0.98856  0.00425  0.01372  1.0000
  I   I245      1.0  0.46395  0.61375  0.86490  1.0000
  I   I246      1.0  0.31522  0.48160  0.63680  1.0000
  I   I247      1.0  0.85967  0.22111  0.30653  1.0000
  I   I248      1.0  0.40407  0.10425  0.90676  1.0000
  I   I249      1.0  0.23692  0.90087  0.88427  1.0000
  I   I250      1.0  0.21019  0.27347  0.77204  1.0000
  I   I251      1.0  0.97876  0.30137  0.17876  1.0000
  I   I252      1.0  0.07871  0.55998  0.51809  1.0000
  I   I253      1.0  0.18549  0.02763  0.85376  1.0000
  I   I254      1.0  0.97761  0.09107  0.46607  1.0000
  I   I255      1.0  0.61098  0.09839  0.62478  1.0000
  I   I256      1.0  0.03781  0.35756  0.74705  1.0000
  I   I257      1.0  0.27813  0.08066  0.26745  1.0000
  I   I258      1.0  0.11165  0.76643  0.28528  1.0000
  I   I259      1.0  0.54961  0.48003  0.13251  1.0000
  I   I260      1.0  0.99490  0.41567  0.10207  1.0000
  I   I261      1.0  0.31050  0.03243  0.81233  1.0000
  I   I262      1.0  0.65735  0.61205  0.10102  1.0000
  I   I263      1.0  0.47775  0.01033  0.62360  1.0000
  I   I264      1.0  0.24996  0.71709  0.45042  1.0000
  I   I265      1.0  0.66584  0.73741  0.85808  1.0000
  I   I266      1.0  0.42094  0.88312  0.13658  1.0000
  I   I267      1.0  0.83634  0.99744  0.64834  1.0000
  I   I268      1.0  0.72179  0.48894  0.69976  1.0000
  I   I269      1.0  0.86574  0.95829  0.78004  1.0000
  I   I270      1.0  0.16828  0.14798  0.37448  1.0000
  I   I271      1.0  0.98124  0.96517  0.28690  1.0000
  I   I272      1.0  0.74085  0.31119  0.19916  1.0000
  I   I273      1.0  0.08494  0.89463  0.24517  1.0000
  I   I274      1.0  0.50567  0.45127  0.92401  1.0000
  I   I275      1.0  0.67863  0.56141  0.35208  1.0000
  I   I276      1.0  0.78171  0.81620  0.81756  1.0000
  I   I277      1.0  0.06782  0.48401  0.31538  1.0000
  I   I278      1.0  0.57971  0.33241  0.14237  1.0000
  I   I279      1.0  0.99757  0.62067  0.07743  1.0000
  I   I280      1.0  0.60849  0.78177  0.34353  1.0000
  I   I281      1.0  0.48162  0.72166  0.59443  1.0000
  I   I282      1.0  0.81110  0.46643  0.25777  1.0000
  I   I283      1.0  0.64116  0.16523  0.39688  1.0000
  I   I284      1.0  0.91637  0.40600  0.59196  1.0000
  I   I285      1.0  0.31355  0.64407  0.58509  1.0000
  I   I286      1.0  0.43313  0.48703  0.44642  1.0000
  I   I287      1.0  0.24993  0.49140  0.18444  1.0000
  I   I288      1.0  0.53431  0.37307  0.57693  1.0000
  I   I289      1.0  0.68942  0.67692  0.63796  1.0000
  I   I290      1.0  0.04449  0.28242  0.79808  1.0000
  I   I291      1.0  0.51637  0.97705  0.06459  1.0000
  I   I292      1.0  0.03630  0.02656  0.03595  1.0000
  I   I293      1.0  0.39864  0.64593  0.86672  1.0000
  I   I294      1.0  0.26126  0.48723  0.60042  1.0000
  I   I295      1.0  0.88459  0.25792  0.43127  1.0000
  I   I296      1.0  0.46049  0.35569  0.73741  1.0000
  I   I297      1.0  0.29707  0.88113  0.81314  1.0000
  I   I298      1.0  0.70481  0.15734  0.43964  1.0000
  I   I299      1.0  0.71896  0.03409  0.19926  1.0000
  I   I300      1.0  0.12907  0.56964  0.51098  1.0000
  I   I301      1.0  0.68465  0.07389  0.71975  1.0000
  I   I302      1.0  0.12404  0.09110  0.86442  1.0000
  I   I303      1.0  0.25460  0.17444  0.87336  1.0000
  I   I304      1.0  0.02790  0.78811  0.26159  1.0000
  I   I305      1.0  0.77345  0.96152  0.18408  1.0000
  I   I306      1.0  0.51872  0.35920  0.20213  1.0000
  I   I307      1.0  0.53333  0.58533  0.26254  1.0000
  I   I308      1.0  0.34971  0.87588  0.54231  1.0000
  I   I309      1.0  0.39059  0.02945  0.87947  1.0000
  I   I310      1.0  0.63815  0.58865  0.98315  1.0000
  I   I311      1.0  0.49297  0.06925  0.69730  1.0000
  I   I312      1.0  0.09811  0.11119  0.09902  1.0000
  I   I313      1.0  0.77693  0.96126  0.50989  1.0000
  I   I314      1.0  0.65530  0.80507  0.85404  1.0000
  I   I315      1.0  0.36665  0.84877  0.31859  1.0000
  I   I316      1.0  0.12676  0.22275  0.45151  1.0000
  I   I317      1.0  0.71422  0.46700  0.61471  1.0000
  I   I318      1.0  0.94065  0.94443  0.81682  1.0000
  I   I319      1.0  0.51730  0.46125  0.22603  1.0000
  I   I320      1.0  0.82916  0.06947  0.72849  1.0000
  I   I321      1.0  0.68295  0.38554  0.09573  1.0000
  I   I322      1.0  0.48966  0.39886  0.96094  1.0000
  I   I323      1.0  0.69641  0.50434  0.31001  1.0000
  I   I324      1.0  0.70472  0.90695  0.97191  1.0000
  I   I325      1.0  0.03070  0.48910  0.46942  1.0000
  I   I326      1.0  0.56857  0.32582  0.27537  1.0000
  I   I327      1.0  0.96857  0.70887  0.15095  1.0000
  I   I328      1.0  0.29167  0.13804  0.98281  1.0000
  I   I329      1.0  0.54290  0.70096  0.67239  1.0000
  I   I330      1.0  0.85100  0.48535  0.18181  1.0000
  I   I331      1.0  0.33388  0.58419  0.53377  1.0000
  I   I332      1.0  0.59124  0.20323  0.27084  1.0000
  I   I333      1.0  0.87086  0.47596  0.74283  1.0000
  I   I334      1.0  0.59272  0.29112  0.59670  1.0000
  I   I335      1.0  0.38481  0.43641  0.49230  1.0000
  I   I336      1.0  0.23475  0.44817  0.14714  1.0000
  I   I337      1.0  0.35971  0.70702  0.39381  1.0000
  I   I338      1.0  0.07620  0.23293  0.88573  1.0000
  I   I339      1.0  0.51155  0.03103  0.15952  1.0000
  I   I340      1.0  0.08689  0.95568  0.87118  1.0000
  I   I341      1.0  0.75809  0.76135  0.59878  1.0000
  I   I342      1.0  0.27522  0.39892  0.59867  1.0000
  I   I343      1.0  0.86154  0.17939  0.43225  1.0000
  I   I344      1.0  0.39435  0.39008  0.68728  1.0000
  I   I345      1.0  0.31513  0.91762  0.88534  1.0000
  I   I346      1.0  0.59535  0.15821  0.33651  1.0000
  I   I347      1.0  0.15359  0.29519  0.69293  1.0000
  I   I348      1.0  0.12881  0.57765  0.39331  1.0000
  I   I349      1.0  0.61887  0.08690  0.75573  1.0000
  I   I350      1.0  0.15873  0.10667  0.78347  1.0000
  I   I351      1.0  0.09103  0.06399  0.48457  1.0000
  I   I352      1.0  0.16370  0.71548  0.23977  1.0000
  I   I353      1.0  0.02470  0.38348  0.62734  1.0000
  I   I354      1.0  0.48865  0.30270  0.12476  1.0000
  I   I355      1.0  0.53196  0.53739  0.06616  1.0000
  I   I356      1.0  0.05527  0.37468  0.16800  1.0000
  I   I357      1.0  0.38120  0.00121  0.79567  1.0000
  I   I358      1.0  0.22413  0.69946  0.55652  1.0000
  I   I359      1.0  0.53797  0.99375  0.67371  1.0000
  I   I360      1.0  0.09096  0.10902  0.22514  1.0000
  I   I361      1.0  0.83198  0.92684  0.47182  1.0000
  I   I362      1.0  0.62212  0.86423  0.90042  1.0000
  I   I363      1.0  0.45483  0.84704  0.25628  1.0000
  I   I364      1.0  0.14181  0.20684  0.56630  1.0000
  I   I365      1.0  0.70848  0.45971  0.78844  1.0000
  I   I366      1.0  0.83636  0.92430  0.81530  1.0000
  I   I367      1.0  0.56873  0.39421  0.23926  1.0000
  I   I368      1.0  0.75835  0.12259  0.79107  1.0000
  I   I369      1.0  0.70114  0.37946  0.19193  1.0000
  I   I370      1.0  0.49481  0.41262  0.06297  1.0000
  I   I371      1.0  0.66033  0.59401  0.23670  1.0000
  I   I372      1.0  0.74785  0.79117  0.88886  1.0000
  I   I373      1.0  0.08829  0.48476  0.46119  1.0000
  I   I374      1.0  0.58937  0.32026  0.03117  1.0000
  I   I375      1.0  0.93732  0.65743  0.08802  1.0000
  I   I376      1.0  0.64270  0.71297  0.39245  1.0000
  I   I377      1.0  0.49092  0.71252  0.73691  1.0000
  I   I378      1.0  0.78280  0.46300  0.15490  1.0000
  I   I379      1.0  0.25470  0.67818  0.36825  1.0000
  I   I380      1.0  0.97448  0.85118  0.95056  1.0000
  I   I381      1.0  0.90043  0.46276  0.66161  1.0000
  I   I382      1.0  0.54754  0.33263  0.68905  1.0000
  I   I383      1.0  0.42421  0.45022  0.40935  1.0000
  I   I384      1.0  0.21459  0.51527  0.07827  1.0000
