data_image0
_chemical_formula_structural       Ti96I384
_chemical_formula_sum              "Ti96 I384"
_cell_length_a       38.8534
_cell_length_b       38.2406
_cell_length_c       22.2195
_cell_angle_alpha    88.7757
_cell_angle_beta     88.7757
_cell_angle_gamma    62.1586

_space_group_name_H-M_alt    "P 1"
_space_group_IT_number       1

loop_
  _space_group_symop_operation_xyz
  'x, y, z'

loop_
  _atom_site_type_symbol
  _atom_site_label
  _atom_site_symmetry_multiplicity
  _atom_site_fract_x
  _atom_site_fract_y
  _atom_site_fract_z
  _atom_site_occupancy
  Ti  Ti1       1.0  0.17588  0.06776  0.17955  1.0000
  Ti  Ti2       1.0  0.15421  0.06550  0.51605  1.0000
  Ti  Ti3       1.0  0.15561  0.06469  0.84078  1.0000
  Ti  Ti4       1.0  0.18095  0.30204  0.28165  1.0000
  Ti  Ti5       1.0  0.18487  0.31970  0.61667  1.0000
  Ti  Ti6       1.0  0.17346  0.29756  0.95156  1.0000
  Ti  Ti7       1.0  0.15610  0.56777  0.27395  1.0000
  Ti  Ti8       1.0  0.15651  0.58046  0.60765  1.0000
  Ti  Ti9       1.0  0.17715  0.56439  0.96114  1.0000
  Ti  Ti10      1.0  0.09720  0.89503  0.23379  1.0000
  Ti  Ti11      1.0  0.10379  0.89981  0.56058  1.0000
  Ti  Ti12      1.0  0.11047  0.89662  0.89362  1.0000
  Ti  Ti13      1.0  0.41377  0.08451  0.27584  1.0000
  Ti  Ti14      1.0  0.42652  0.06788  0.59281  1.0000
  Ti  Ti15      1.0  0.40761  0.06921  0.92808  1.0000
  Ti  Ti16      1.0  0.43392  0.31886  0.29903  1.0000
  Ti  Ti17      1.0  0.43776  0.31586  0.61658  1.0000
  Ti  Ti18      1.0  0.43328  0.31315  0.95421  1.0000
  Ti  Ti19      1.0  0.36593  0.66319  0.27730  1.0000
  Ti  Ti20      1.0  0.34699  0.66398  0.60560  1.0000
  Ti  Ti21      1.0  0.37236  0.63606  0.92656  1.0000
  Ti  Ti22      1.0  0.41418  0.83855  0.17607  1.0000
  Ti  Ti23      1.0  0.39921  0.83313  0.50563  1.0000
  Ti  Ti24      1.0  0.40955  0.81879  0.83092  1.0000
  Ti  Ti25      1.0  0.69546  0.05567  0.34187  1.0000
  Ti  Ti26      1.0  0.69169  0.08618  0.66862  1.0000
  Ti  Ti27      1.0  0.67869  0.07267  0.00382  1.0000
  Ti  Ti28      1.0  0.61038  0.38584  0.27381  1.0000
  Ti  Ti29      1.0  0.62177  0.38411  0.60675  1.0000
  Ti  Ti30      1.0  0.61903  0.37966  0.94509  1.0000
  Ti  Ti31      1.0  0.67992  0.57825  0.18291  1.0000
  Ti  Ti32      1.0  0.66846  0.58294  0.52013  1.0000
  Ti  Ti33      1.0  0.68782  0.58171  0.84932  1.0000
  Ti  Ti34      1.0  0.65168  0.85525  0.29892  1.0000
  Ti  Ti35      1.0  0.65876  0.85297  0.62265  1.0000
  Ti  Ti36      1.0  0.65095  0.85325  0.94911  1.0000
  Ti  Ti37      1.0  0.87041  0.13770  0.21630  1.0000
  Ti  Ti38      1.0  0.87647  0.13857  0.55750  1.0000
  Ti  Ti39      1.0  0.87464  0.12571  0.89001  1.0000
  Ti  Ti40      1.0  0.93618  0.30046  0.18423  1.0000
  Ti  Ti41      1.0  0.93634  0.29516  0.52940  1.0000
  Ti  Ti42      1.0  0.92370  0.30690  0.85019  1.0000
  Ti  Ti43      1.0  0.91257  0.59285  0.21522  1.0000
  Ti  Ti44      1.0  0.90057  0.59307  0.57013  1.0000
  Ti  Ti45      1.0  0.90759  0.59835  0.88878  1.0000
  Ti  Ti46      1.0  0.92080  0.85295  0.30372  1.0000
  Ti  Ti47      1.0  0.92295  0.84065  0.63530  1.0000
  Ti  Ti48      1.0  0.92849  0.85742  0.97523  1.0000
  Ti  Ti49      1.0  0.10888  0.12232  0.02000  1.0000
  Ti  Ti50      1.0  0.10151  0.13983  0.33742  1.0000
  Ti  Ti51      1.0  0.09409  0.13934  0.67856  1.0000
  Ti  Ti52      1.0  0.10273  0.36895  0.13372  1.0000
  Ti  Ti53      1.0  0.12725  0.36940  0.44320  1.0000
  Ti  Ti54      1.0  0.11484  0.36620  0.78428  1.0000
  Ti  Ti55      1.0  0.11071  0.64144  0.10376  1.0000
  Ti  Ti56      1.0  0.09791  0.64342  0.43442  1.0000
  Ti  Ti57      1.0  0.10164  0.63959  0.78550  1.0000
  Ti  Ti58      1.0  0.04568  0.95928  0.06394  1.0000
  Ti  Ti59      1.0  0.04238  0.96488  0.40512  1.0000
  Ti  Ti60      1.0  0.05069  0.96244  0.73252  1.0000
  Ti  Ti61      1.0  0.35214  0.13064  0.10548  1.0000
  Ti  Ti62      1.0  0.34493  0.15450  0.43115  1.0000
  Ti  Ti63      1.0  0.36677  0.14048  0.75539  1.0000
  Ti  Ti64      1.0  0.36765  0.39224  0.11525  1.0000
  Ti  Ti65      1.0  0.37240  0.39668  0.44991  1.0000
  Ti  Ti66      1.0  0.36614  0.38560  0.79527  1.0000
  Ti  Ti67      1.0  0.31887  0.69278  0.09010  1.0000
  Ti  Ti68      1.0  0.29279  0.72722  0.43380  1.0000
  Ti  Ti69      1.0  0.28434  0.72015  0.77090  1.0000
  Ti  Ti70      1.0  0.35058  0.88098  0.00808  1.0000
  Ti  Ti71      1.0  0.34625  0.90232  0.34141  1.0000
  Ti  Ti72      1.0  0.33998  0.89654  0.68432  1.0000
  Ti  Ti73      1.0  0.62893  0.13096  0.18804  1.0000
  Ti  Ti74      1.0  0.62176  0.12450  0.50437  1.0000
  Ti  Ti75      1.0  0.63136  0.14426  0.84135  1.0000
  Ti  Ti76      1.0  0.54400  0.44946  0.11266  1.0000
  Ti  Ti77      1.0  0.55545  0.45059  0.44370  1.0000
  Ti  Ti78      1.0  0.55309  0.44630  0.76432  1.0000
  Ti  Ti79      1.0  0.62944  0.63690  0.01879  1.0000
  Ti  Ti80      1.0  0.61340  0.64025  0.36179  1.0000
  Ti  Ti81      1.0  0.61356  0.64318  0.69881  1.0000
  Ti  Ti82      1.0  0.58732  0.91069  0.12790  1.0000
  Ti  Ti83      1.0  0.58358  0.91470  0.45549  1.0000
  Ti  Ti84      1.0  0.58794  0.91908  0.78462  1.0000
  Ti  Ti85      1.0  0.80031  0.18902  0.05534  1.0000
  Ti  Ti86      1.0  0.80045  0.18694  0.39593  1.0000
  Ti  Ti87      1.0  0.81010  0.19119  0.72108  1.0000
  Ti  Ti88      1.0  0.87889  0.37113  0.01314  1.0000
  Ti  Ti89      1.0  0.86627  0.37036  0.35653  1.0000
  Ti  Ti90      1.0  0.86311  0.37256  0.68514  1.0000
  Ti  Ti91      1.0  0.83890  0.65710  0.05819  1.0000
  Ti  Ti92      1.0  0.85564  0.64445  0.38385  1.0000
  Ti  Ti93      1.0  0.83088  0.66494  0.73353  1.0000
  Ti  Ti94      1.0  0.86033  0.91492  0.13875  1.0000
  Ti  Ti95      1.0  0.86816  0.91556  0.48644  1.0000
  Ti  Ti96      1.0  0.86258  0.91717  0.80597  1.0000
  I   I1        1.0  0.09566  0.09400  0.24244  1.0000
  I   I2        1.0  0.07994  0.10517  0.58120  1.0000
  I   I3        1.0  0.07699  0.11180  0.91678  1.0000
  I   I4        1.0  0.10297  0.34127  0.35454  1.0000
  I   I5        1.0  0.10027  0.35605  0.66948  1.0000
  I   I6        1.0  0.08144  0.33803  0.03492  1.0000
  I   I7        1.0  0.07811  0.62084  0.32638  1.0000
  I   I8        1.0  0.08181  0.61355  0.67334  1.0000
  I   I9        1.0  0.10128  0.60452  0.00913  1.0000
  I   I10       1.0  0.01934  0.94909  0.29299  1.0000
  I   I11       1.0  0.03362  0.93603  0.63025  1.0000
  I   I12       1.0  0.03026  0.92886  0.95571  1.0000
  I   I13       1.0  0.32678  0.13200  0.32735  1.0000
  I   I14       1.0  0.35200  0.10131  0.65464  1.0000
  I   I15       1.0  0.34062  0.10567  0.99163  1.0000
  I   I16       1.0  0.35589  0.36690  0.35472  1.0000
  I   I17       1.0  0.36468  0.35625  0.68489  1.0000
  I   I18       1.0  0.35696  0.35265  0.02425  1.0000
  I   I19       1.0  0.29140  0.69383  0.33398  1.0000
  I   I20       1.0  0.26919  0.68919  0.64999  1.0000
  I   I21       1.0  0.29974  0.66184  0.00021  1.0000
  I   I22       1.0  0.34496  0.85502  0.25018  1.0000
  I   I23       1.0  0.32506  0.86038  0.57636  1.0000
  I   I24       1.0  0.33395  0.85658  0.89629  1.0000
  I   I25       1.0  0.62309  0.08259  0.40245  1.0000
  I   I26       1.0  0.61730  0.11703  0.73321  1.0000
  I   I27       1.0  0.60920  0.12165  0.05362  1.0000
  I   I28       1.0  0.53669  0.41816  0.34027  1.0000
  I   I29       1.0  0.55142  0.40151  0.66904  1.0000
  I   I30       1.0  0.52933  0.42188  0.00873  1.0000
  I   I31       1.0  0.60678  0.61007  0.24949  1.0000
  I   I32       1.0  0.59634  0.60990  0.59460  1.0000
  I   I33       1.0  0.61378  0.60972  0.91126  1.0000
  I   I34       1.0  0.57737  0.86906  0.36814  1.0000
  I   I35       1.0  0.58454  0.87009  0.68546  1.0000
  I   I36       1.0  0.57880  0.86735  0.02727  1.0000
  I   I37       1.0  0.79696  0.15036  0.28822  1.0000
  I   I38       1.0  0.80080  0.16384  0.60722  1.0000
  I   I39       1.0  0.79481  0.15519  0.94928  1.0000
  I   I40       1.0  0.85909  0.33653  0.25506  1.0000
  I   I41       1.0  0.86368  0.32152  0.59695  1.0000
  I   I42       1.0  0.85020  0.34021  0.92390  1.0000
  I   I43       1.0  0.83560  0.62382  0.27998  1.0000
  I   I44       1.0  0.82011  0.63239  0.63665  1.0000
  I   I45       1.0  0.83364  0.61927  0.95508  1.0000
  I   I46       1.0  0.84607  0.89523  0.37356  1.0000
  I   I47       1.0  0.84741  0.88487  0.70821  1.0000
  I   I48       1.0  0.84801  0.90146  0.02666  1.0000
  I   I49       1.0  0.14067  0.13925  0.12168  1.0000
  I   I50       1.0  0.12179  0.14652  0.45048  1.0000
  I   I51       1.0  0.13146  0.14295  0.78712  1.0000
  I   I52       1.0  0.14690  0.37904  0.22641  1.0000
  I   I53       1.0  0.16086  0.39163  0.53770  1.0000
  I   I54       1.0  0.14648  0.37301  0.90028  1.0000
  I   I55       1.0  0.13828  0.64431  0.21223  1.0000
  I   I56       1.0  0.12601  0.65747  0.54261  1.0000
  I   I57       1.0  0.15367  0.63054  0.87356  1.0000
  I   I58       1.0  0.08457  0.96713  0.16415  1.0000
  I   I59       1.0  0.07321  0.98008  0.50862  1.0000
  I   I60       1.0  0.07398  0.98151  0.83856  1.0000
  I   I61       1.0  0.38658  0.15273  0.20082  1.0000
  I   I62       1.0  0.38292  0.15138  0.53484  1.0000
  I   I63       1.0  0.38385  0.15024  0.87275  1.0000
  I   I64       1.0  0.40802  0.39365  0.21659  1.0000
  I   I65       1.0  0.40873  0.40410  0.55511  1.0000
  I   I66       1.0  0.41100  0.38871  0.89358  1.0000
  I   I67       1.0  0.34026  0.72949  0.19867  1.0000
  I   I68       1.0  0.30882  0.74562  0.54715  1.0000
  I   I69       1.0  0.32698  0.71960  0.86996  1.0000
  I   I70       1.0  0.38705  0.90700  0.09617  1.0000
  I   I71       1.0  0.37253  0.90989  0.45319  1.0000
  I   I72       1.0  0.38009  0.89822  0.77742  1.0000
  I   I73       1.0  0.66646  0.13664  0.28370  1.0000
  I   I74       1.0  0.65618  0.15270  0.60369  1.0000
  I   I75       1.0  0.66515  0.15026  0.94471  1.0000
  I   I76       1.0  0.57522  0.45902  0.21509  1.0000
  I   I77       1.0  0.58982  0.46270  0.55073  1.0000
  I   I78       1.0  0.57195  0.45461  0.87925  1.0000
  I   I79       1.0  0.64860  0.66144  0.13236  1.0000
  I   I80       1.0  0.63364  0.65956  0.47996  1.0000
  I   I81       1.0  0.64584  0.66399  0.79277  1.0000
  I   I82       1.0  0.61149  0.92951  0.23323  1.0000
  I   I83       1.0  0.62304  0.92786  0.55284  1.0000
  I   I84       1.0  0.60718  0.93518  0.89219  1.0000
  I   I85       1.0  0.82736  0.21769  0.14059  1.0000
  I   I86       1.0  0.84157  0.20415  0.47867  1.0000
  I   I87       1.0  0.83866  0.20460  0.83091  1.0000
  I   I88       1.0  0.90989  0.37741  0.11857  1.0000
  I   I89       1.0  0.89645  0.37251  0.46845  1.0000
  I   I90       1.0  0.89136  0.39150  0.78303  1.0000
  I   I91       1.0  0.87160  0.67443  0.16437  1.0000
  I   I92       1.0  0.86901  0.66700  0.49999  1.0000
  I   I93       1.0  0.86002  0.68454  0.83207  1.0000
  I   I94       1.0  0.89654  0.92307  0.25008  1.0000
  I   I95       1.0  0.90284  0.92893  0.57927  1.0000
  I   I96       1.0  0.90590  0.92752  0.89378  1.0000
  I   I97       1.0  0.17285  0.10197  0.94317  1.0000
  I   I98       1.0  0.17178  0.11355  0.27560  1.0000
  I   I99       1.0  0.17266  0.09537  0.61857  1.0000
  I   I100      1.0  0.17649  0.32555  0.05644  1.0000
  I   I101      1.0  0.20149  0.33320  0.37785  1.0000
  I   I102      1.0  0.19011  0.35045  0.73406  1.0000
  I   I103      1.0  0.19738  0.59826  0.04784  1.0000
  I   I104      1.0  0.16986  0.60154  0.36893  1.0000
  I   I105      1.0  0.18101  0.60349  0.69994  1.0000
  I   I106      1.0  0.11979  0.92061  0.00202  1.0000
  I   I107      1.0  0.11463  0.92875  0.32546  1.0000
  I   I108      1.0  0.12662  0.93173  0.66065  1.0000
  I   I109      1.0  0.43035  0.09233  0.04331  1.0000
  I   I110      1.0  0.42457  0.12342  0.37501  1.0000
  I   I111      1.0  0.44068  0.10379  0.68648  1.0000
  I   I112      1.0  0.44937  0.34877  0.06073  1.0000
  I   I113      1.0  0.44877  0.35137  0.39158  1.0000
  I   I114      1.0  0.45342  0.34508  0.72860  1.0000
  I   I115      1.0  0.39656  0.65230  0.02826  1.0000
  I   I116      1.0  0.37691  0.68565  0.38443  1.0000
  I   I117      1.0  0.35840  0.69716  0.70286  1.0000
  I   I118      1.0  0.42894  0.85044  0.92783  1.0000
  I   I119      1.0  0.41979  0.88081  0.27448  1.0000
  I   I120      1.0  0.41695  0.86083  0.61602  1.0000
  I   I121      1.0  0.69517  0.10849  0.11961  1.0000
  I   I122      1.0  0.70215  0.09018  0.44273  1.0000
  I   I123      1.0  0.70714  0.10887  0.78074  1.0000
  I   I124      1.0  0.62279  0.41785  0.04060  1.0000
  I   I125      1.0  0.63071  0.41334  0.38154  1.0000
  I   I126      1.0  0.63191  0.42378  0.70367  1.0000
  I   I127      1.0  0.69994  0.61009  0.95490  1.0000
  I   I128      1.0  0.68537  0.62118  0.29085  1.0000
  I   I129      1.0  0.68720  0.60665  0.63140  1.0000
  I   I130      1.0  0.65531  0.89042  0.05355  1.0000
  I   I131      1.0  0.66149  0.89238  0.40006  1.0000
  I   I132      1.0  0.66308  0.88878  0.73185  1.0000
  I   I133      1.0  0.88202  0.15860  0.99053  1.0000
  I   I134      1.0  0.86415  0.18019  0.31567  1.0000
  I   I135      1.0  0.87669  0.18637  0.64681  1.0000
  I   I136      1.0  0.95075  0.32889  0.94989  1.0000
  I   I137      1.0  0.94602  0.33647  0.29171  1.0000
  I   I138      1.0  0.94359  0.33987  0.63540  1.0000
  I   I139      1.0  0.91877  0.62399  0.00186  1.0000
  I   I140      1.0  0.93436  0.60838  0.33344  1.0000
  I   I141      1.0  0.91286  0.62966  0.66712  1.0000
  I   I142      1.0  0.94246  0.88731  0.07807  1.0000
  I   I143      1.0  0.94775  0.85990  0.41148  1.0000
  I   I144      1.0  0.94427  0.87397  0.72458  1.0000
  I   I145      1.0  0.15203  0.04378  0.08044  1.0000
  I   I146      1.0  0.11485  0.05922  0.42621  1.0000
  I   I147      1.0  0.11354  0.06767  0.74138  1.0000
  I   I148      1.0  0.13491  0.28846  0.19707  1.0000
  I   I149      1.0  0.17574  0.29421  0.51498  1.0000
  I   I150      1.0  0.15177  0.28648  0.83719  1.0000
  I   I151      1.0  0.12439  0.56326  0.17171  1.0000
  I   I152      1.0  0.11390  0.57208  0.50517  1.0000
  I   I153      1.0  0.12975  0.55865  0.83744  1.0000
  I   I154      1.0  0.06041  0.88630  0.13061  1.0000
  I   I155      1.0  0.07096  0.88713  0.45057  1.0000
  I   I156      1.0  0.07764  0.88685  0.78282  1.0000
  I   I157      1.0  0.38108  0.06132  0.17488  1.0000
  I   I158      1.0  0.39061  0.06577  0.49489  1.0000
  I   I159      1.0  0.37774  0.06228  0.81054  1.0000
  I   I160      1.0  0.39544  0.31684  0.18446  1.0000
  I   I161      1.0  0.40366  0.30805  0.51495  1.0000
  I   I162      1.0  0.39893  0.30871  0.85112  1.0000
  I   I163      1.0  0.34314  0.63051  0.17417  1.0000
  I   I164      1.0  0.31826  0.64922  0.50507  1.0000
  I   I165      1.0  0.31911  0.64127  0.82000  1.0000
  I   I166      1.0  0.40529  0.80925  0.05963  1.0000
  I   I167      1.0  0.37317  0.82188  0.39038  1.0000
  I   I168      1.0  0.36337  0.81556  0.74094  1.0000
  I   I169      1.0  0.66047  0.05362  0.23552  1.0000
  I   I170      1.0  0.66986  0.05581  0.56868  1.0000
  I   I171      1.0  0.65461  0.05766  0.89324  1.0000
  I   I172      1.0  0.57995  0.36941  0.16259  1.0000
  I   I173      1.0  0.58406  0.37506  0.49669  1.0000
  I   I174      1.0  0.59568  0.36675  0.82976  1.0000
  I   I175      1.0  0.66653  0.55646  0.07279  1.0000
  I   I176      1.0  0.63147  0.57119  0.43191  1.0000
  I   I177      1.0  0.65752  0.56641  0.75219  1.0000
  I   I178      1.0  0.62572  0.83686  0.19693  1.0000
  I   I179      1.0  0.62432  0.83674  0.52414  1.0000
  I   I180      1.0  0.62448  0.83501  0.85078  1.0000
  I   I181      1.0  0.84031  0.11468  0.13728  1.0000
  I   I182      1.0  0.85019  0.11198  0.45173  1.0000
  I   I183      1.0  0.84804  0.11692  0.77299  1.0000
  I   I184      1.0  0.90354  0.29373  0.08324  1.0000
  I   I185      1.0  0.90530  0.28658  0.42734  1.0000
  I   I186      1.0  0.89719  0.28964  0.75436  1.0000
  I   I187      1.0  0.86972  0.58280  0.12267  1.0000
  I   I188      1.0  0.88208  0.57200  0.45915  1.0000
  I   I189      1.0  0.87040  0.58957  0.79524  1.0000
  I   I190      1.0  0.87912  0.84453  0.19891  1.0000
  I   I191      1.0  0.87534  0.84787  0.54227  1.0000
  I   I192      1.0  0.89386  0.83875  0.86727  1.0000
  I   I193      1.0  0.24825  0.04072  0.13617  1.0000
  I   I194      1.0  0.22048  0.04852  0.46102  1.0000
  I   I195      1.0  0.22693  0.03668  0.80540  1.0000
  I   I196      1.0  0.24297  0.27354  0.21950  1.0000
  I   I197      1.0  0.25888  0.29590  0.59938  1.0000
  I   I198      1.0  0.24602  0.28381  0.91402  1.0000
  I   I199      1.0  0.22489  0.53826  0.22116  1.0000
  I   I200      1.0  0.21742  0.55095  0.54080  1.0000
  I   I201      1.0  0.24204  0.52555  0.90493  1.0000
  I   I202      1.0  0.16758  0.85189  0.19039  1.0000
  I   I203      1.0  0.16882  0.86937  0.49697  1.0000
  I   I204      1.0  0.17935  0.88192  0.85521  1.0000
  I   I205      1.0  0.48668  0.05687  0.24761  1.0000
  I   I206      1.0  0.49800  0.04805  0.55322  1.0000
  I   I207      1.0  0.47730  0.05986  0.90560  1.0000
  I   I208      1.0  0.50048  0.29893  0.25071  1.0000
  I   I209      1.0  0.50507  0.29019  0.56943  1.0000
  I   I210      1.0  0.50421  0.28344  0.92213  1.0000
  I   I211      1.0  0.43670  0.64159  0.23303  1.0000
  I   I212      1.0  0.41348  0.63712  0.54691  1.0000
  I   I213      1.0  0.42795  0.62018  0.85330  1.0000
  I   I214      1.0  0.48138  0.83527  0.13365  1.0000
  I   I215      1.0  0.46765  0.81634  0.45484  1.0000
  I   I216      1.0  0.48092  0.79243  0.77395  1.0000
  I   I217      1.0  0.76057  0.04594  0.28850  1.0000
  I   I218      1.0  0.76342  0.06567  0.62850  1.0000
  I   I219      1.0  0.75322  0.04050  0.97152  1.0000
  I   I220      1.0  0.67812  0.37457  0.22182  1.0000
  I   I221      1.0  0.68744  0.36384  0.55471  1.0000
  I   I222      1.0  0.68633  0.35886  0.90402  1.0000
  I   I223      1.0  0.74548  0.57316  0.14282  1.0000
  I   I224      1.0  0.72883  0.57462  0.46142  1.0000
  I   I225      1.0  0.75223  0.58113  0.80465  1.0000
  I   I226      1.0  0.71624  0.84266  0.24758  1.0000
  I   I227      1.0  0.72167  0.84515  0.57053  1.0000
  I   I228      1.0  0.71247  0.84591  0.89707  1.0000
  I   I229      1.0  0.93530  0.13601  0.17068  1.0000
  I   I230      1.0  0.94770  0.12244  0.51621  1.0000
  I   I231      1.0  0.94624  0.10231  0.85474  1.0000
  I   I232      1.0  0.00416  0.28526  0.13896  1.0000
  I   I233      1.0  0.00343  0.27249  0.48606  1.0000
  I   I234      1.0  0.98838  0.29753  0.79869  1.0000
  I   I235      1.0  0.97772  0.58581  0.16656  1.0000
  I   I236      1.0  0.97370  0.57008  0.54542  1.0000
  I   I237      1.0  0.97406  0.58712  0.84931  1.0000
  I   I238      1.0  0.98896  0.81965  0.25247  1.0000
  I   I239      1.0  0.98805  0.81422  0.58098  1.0000
  I   I240      1.0  0.99910  0.83418  0.93002  1.0000
  I   I241      1.0  0.20442  0.00628  0.25938  1.0000
  I   I242      1.0  0.16804  0.99917  0.57204  1.0000
  I   I243      1.0  0.16724  0.99957  0.89022  1.0000
  I   I244      1.0  0.19752  0.23534  0.33501  1.0000
  I   I245      1.0  0.19004  0.25538  0.67538  1.0000
  I   I246      1.0  0.19114  0.22506  0.98867  1.0000
  I   I247      1.0  0.17279  0.49991  0.33329  1.0000
  I   I248      1.0  0.17170  0.50994  0.65351  1.0000
  I   I249      1.0  0.18965  0.50030  0.02050  1.0000
  I   I250      1.0  0.08948  0.83304  0.27844  1.0000
  I   I251      1.0  0.12358  0.82898  0.60082  1.0000
  I   I252      1.0  0.12803  0.82093  0.92025  1.0000
  I   I253      1.0  0.41801  0.02063  0.32118  1.0000
  I   I254      1.0  0.44257  0.00128  0.64531  1.0000
  I   I255      1.0  0.41508  0.99940  0.95463  1.0000
  I   I256      1.0  0.44733  0.24759  0.33052  1.0000
  I   I257      1.0  0.44775  0.24793  0.65996  1.0000
  I   I258      1.0  0.44075  0.24361  0.99928  1.0000
  I   I259      1.0  0.37933  0.59329  0.32081  1.0000
  I   I260      1.0  0.37644  0.59469  0.66226  1.0000
  I   I261      1.0  0.39924  0.56139  0.94723  1.0000
  I   I262      1.0  0.44861  0.76397  0.19684  1.0000
  I   I263      1.0  0.42444  0.76465  0.55820  1.0000
  I   I264      1.0  0.43211  0.74686  0.86668  1.0000
  I   I265      1.0  0.71222  0.98437  0.37077  1.0000
  I   I266      1.0  0.70062  0.02091  0.71976  1.0000
  I   I267      1.0  0.68241  0.01108  0.05833  1.0000
  I   I268      1.0  0.63429  0.31269  0.31648  1.0000
  I   I269      1.0  0.64600  0.31416  0.65442  1.0000
  I   I270      1.0  0.62689  0.31635  0.99690  1.0000
  I   I271      1.0  0.69565  0.50597  0.21976  1.0000
  I   I272      1.0  0.69720  0.50757  0.56771  1.0000
  I   I273      1.0  0.71651  0.51271  0.89984  1.0000
  I   I274      1.0  0.68885  0.78491  0.35883  1.0000
  I   I275      1.0  0.69375  0.77796  0.65947  1.0000
  I   I276      1.0  0.68071  0.78231  0.00893  1.0000
  I   I277      1.0  0.91000  0.06747  0.26368  1.0000
  I   I278      1.0  0.90681  0.06680  0.60245  1.0000
  I   I279      1.0  0.88542  0.05631  0.93282  1.0000
  I   I280      1.0  0.95069  0.23510  0.23964  1.0000
  I   I281      1.0  0.95160  0.22269  0.56991  1.0000
  I   I282      1.0  0.95880  0.23342  0.88481  1.0000
  I   I283      1.0  0.93405  0.52049  0.25656  1.0000
  I   I284      1.0  0.90350  0.52986  0.61956  1.0000
  I   I285      1.0  0.93285  0.52724  0.92585  1.0000
  I   I286      1.0  0.91896  0.78516  0.33265  1.0000
  I   I287      1.0  0.93882  0.77268  0.68707  1.0000
  I   I288      1.0  0.93737  0.79139  0.02285  1.0000
  I   I289      1.0  0.04564  0.13215  0.07565  1.0000
  I   I290      1.0  0.03071  0.15519  0.37292  1.0000
  I   I291      1.0  0.02469  0.18022  0.72217  1.0000
  I   I292      1.0  0.04270  0.39537  0.20580  1.0000
  I   I293      1.0  0.06134  0.39007  0.50348  1.0000
  I   I294      1.0  0.05177  0.37785  0.84003  1.0000
  I   I295      1.0  0.03823  0.67678  0.13681  1.0000
  I   I296      1.0  0.02837  0.67979  0.48632  1.0000
  I   I297      1.0  0.03473  0.65285  0.83192  1.0000
  I   I298      1.0  0.97284  0.98282  0.09554  1.0000
  I   I299      1.0  0.97163  0.98017  0.44299  1.0000
  I   I300      1.0  0.98238  0.97883  0.78113  1.0000
  I   I301      1.0  0.28245  0.14760  0.14294  1.0000
  I   I302      1.0  0.27923  0.17130  0.48799  1.0000
  I   I303      1.0  0.29164  0.16889  0.78335  1.0000
  I   I304      1.0  0.30081  0.41798  0.17245  1.0000
  I   I305      1.0  0.30936  0.41301  0.51351  1.0000
  I   I306      1.0  0.29709  0.40168  0.84284  1.0000
  I   I307      1.0  0.24973  0.72402  0.14551  1.0000
  I   I308      1.0  0.21899  0.74441  0.44934  1.0000
  I   I309      1.0  0.21854  0.73080  0.82121  1.0000
  I   I310      1.0  0.28733  0.89604  0.07290  1.0000
  I   I311      1.0  0.27830  0.91023  0.37475  1.0000
  I   I312      1.0  0.26942  0.92258  0.72799  1.0000
  I   I313      1.0  0.55978  0.14701  0.23239  1.0000
  I   I314      1.0  0.55404  0.13995  0.54915  1.0000
  I   I315      1.0  0.56096  0.15744  0.87193  1.0000
  I   I316      1.0  0.47124  0.46695  0.15402  1.0000
  I   I317      1.0  0.48317  0.48081  0.47999  1.0000
  I   I318      1.0  0.49012  0.44315  0.79759  1.0000
  I   I319      1.0  0.56301  0.64397  0.06476  1.0000
  I   I320      1.0  0.54392  0.65172  0.38088  1.0000
  I   I321      1.0  0.54563  0.65572  0.74956  1.0000
  I   I322      1.0  0.51959  0.92878  0.17959  1.0000
  I   I323      1.0  0.51780  0.92995  0.50959  1.0000
  I   I324      1.0  0.52534  0.91651  0.82878  1.0000
  I   I325      1.0  0.73049  0.20863  0.09082  1.0000
  I   I326      1.0  0.74169  0.18233  0.45371  1.0000
  I   I327      1.0  0.74206  0.20510  0.76290  1.0000
  I   I328      1.0  0.80914  0.40297  0.05457  1.0000
  I   I329      1.0  0.80195  0.38253  0.41346  1.0000
  I   I330      1.0  0.79150  0.38481  0.71761  1.0000
  I   I331      1.0  0.76334  0.68729  0.08682  1.0000
  I   I332      1.0  0.78552  0.67122  0.42501  1.0000
  I   I333      1.0  0.76209  0.69561  0.78156  1.0000
  I   I334      1.0  0.78532  0.94266  0.17861  1.0000
  I   I335      1.0  0.79551  0.95489  0.52192  1.0000
  I   I336      1.0  0.78849  0.95616  0.83408  1.0000
  I   I337      1.0  0.07830  0.19526  0.98500  1.0000
  I   I338      1.0  0.08105  0.20967  0.28970  1.0000
  I   I339      1.0  0.09885  0.19714  0.62777  1.0000
  I   I340      1.0  0.08568  0.43287  0.07809  1.0000
  I   I341      1.0  0.09337  0.44496  0.39897  1.0000
  I   I342      1.0  0.09845  0.44051  0.76279  1.0000
  I   I343      1.0  0.10842  0.70212  0.04606  1.0000
  I   I344      1.0  0.09624  0.71121  0.38515  1.0000
  I   I345      1.0  0.07789  0.70780  0.73612  1.0000
  I   I346      1.0  0.03112  0.02733  0.01255  1.0000
  I   I347      1.0  0.03167  0.03309  0.36446  1.0000
  I   I348      1.0  0.02712  0.03567  0.70746  1.0000
  I   I349      1.0  0.33567  0.19777  0.05523  1.0000
  I   I350      1.0  0.32071  0.22679  0.38149  1.0000
  I   I351      1.0  0.37164  0.20472  0.73059  1.0000
  I   I352      1.0  0.35457  0.45679  0.05879  1.0000
  I   I353      1.0  0.36279  0.45986  0.39424  1.0000
  I   I354      1.0  0.35276  0.45658  0.76772  1.0000
  I   I355      1.0  0.30708  0.76187  0.04533  1.0000
  I   I356      1.0  0.28142  0.79488  0.39173  1.0000
  I   I357      1.0  0.25530  0.79660  0.72316  1.0000
  I   I358      1.0  0.31599  0.95028  0.95505  1.0000
  I   I359      1.0  0.32146  0.97208  0.29035  1.0000
  I   I360      1.0  0.32215  0.96260  0.63211  1.0000
  I   I361      1.0  0.60343  0.20711  0.16764  1.0000
  I   I362      1.0  0.60628  0.19289  0.45167  1.0000
  I   I363      1.0  0.61981  0.21472  0.81271  1.0000
  I   I364      1.0  0.52412  0.52271  0.08687  1.0000
  I   I365      1.0  0.55208  0.51270  0.38902  1.0000
  I   I366      1.0  0.53081  0.51667  0.72397  1.0000
  I   I367      1.0  0.61291  0.70729  0.97840  1.0000
  I   I368      1.0  0.59321  0.70941  0.31581  1.0000
  I   I369      1.0  0.58870  0.71185  0.65066  1.0000
  I   I370      1.0  0.55518  0.98190  0.08012  1.0000
  I   I371      1.0  0.55614  0.98474  0.40556  1.0000
  I   I372      1.0  0.56006  0.98922  0.73983  1.0000
  I   I373      1.0  0.77719  0.25766  0.99939  1.0000
  I   I374      1.0  0.75876  0.25911  0.35266  1.0000
  I   I375      1.0  0.79484  0.26930  0.70169  1.0000
  I   I376      1.0  0.87806  0.43771  0.97802  1.0000
  I   I377      1.0  0.85353  0.43414  0.29980  1.0000
  I   I378      1.0  0.83387  0.44189  0.63485  1.0000
  I   I379      1.0  0.83404  0.72182  0.00548  1.0000
  I   I380      1.0  0.84607  0.71408  0.34180  1.0000
  I   I381      1.0  0.81711  0.73096  0.68287  1.0000
  I   I382      1.0  0.85257  0.98628  0.12242  1.0000
  I   I383      1.0  0.86855  0.97312  0.42382  1.0000
  I   I384      1.0  0.85897  0.98137  0.75673  1.0000
