data_image0
_chemical_formula_structural       Ti96I384
_chemical_formula_sum              "Ti96 I384"
_cell_length_a       58.3706
_cell_length_b       58.9326
_cell_length_c       28.4964
_cell_angle_alpha    88.7757
_cell_angle_beta     88.7757
_cell_angle_gamma    62.1586

_space_group_name_H-M_alt    "P 1"
_space_group_IT_number       1

loop_
  _space_group_symop_operation_xyz
  'x, y, z'

loop_
  _atom_site_type_symbol
  _atom_site_label
  _atom_site_symmetry_multiplicity
  _atom_site_fract_x
  _atom_site_fract_y
  _atom_site_fract_z
  _atom_site_occupancy
  Ti  Ti1       1.0  0.87930  0.78861  0.85884  1.0000
  Ti  Ti2       1.0  0.72172  0.03685  0.01710  1.0000
  Ti  Ti3       1.0  0.71518  0.82186  0.53371  1.0000
  Ti  Ti4       1.0  0.44908  0.27844  0.32437  1.0000
  Ti  Ti5       1.0  0.12270  0.78454  0.21229  1.0000
  Ti  Ti6       1.0  0.18788  0.08634  0.13232  1.0000
  Ti  Ti7       1.0  0.98349  0.87500  0.82098  1.0000
  Ti  Ti8       1.0  0.25649  0.69855  0.39626  1.0000
  Ti  Ti9       1.0  0.71023  0.27358  0.21939  1.0000
  Ti  Ti10      1.0  0.57650  0.12724  0.32127  1.0000
  Ti  Ti11      1.0  0.18914  0.55781  0.64428  1.0000
  Ti  Ti12      1.0  0.62243  0.84029  0.03200  1.0000
  Ti  Ti13      1.0  0.40223  0.21013  0.82748  1.0000
  Ti  Ti14      1.0  0.11041  0.41272  0.17379  1.0000
  Ti  Ti15      1.0  0.22876  0.95844  0.89251  1.0000
  Ti  Ti16      1.0  0.97242  0.07796  0.42975  1.0000
  Ti  Ti17      1.0  0.18934  0.49492  0.10424  1.0000
  Ti  Ti18      1.0  0.95840  0.41051  0.25681  1.0000
  Ti  Ti19      1.0  0.69792  0.69732  0.35364  1.0000
  Ti  Ti20      1.0  0.71839  0.87140  0.27408  1.0000
  Ti  Ti21      1.0  0.21850  0.50463  0.47111  1.0000
  Ti  Ti22      1.0  0.44111  0.94944  0.49013  1.0000
  Ti  Ti23      1.0  0.48335  0.87109  0.90709  1.0000
  Ti  Ti24      1.0  0.56343  0.96106  0.60598  1.0000
  Ti  Ti25      1.0  0.21711  0.19837  0.58254  1.0000
  Ti  Ti26      1.0  0.24977  0.39745  0.96482  1.0000
  Ti  Ti27      1.0  0.44790  0.46337  0.51359  1.0000
  Ti  Ti28      1.0  0.61260  0.65165  0.57546  1.0000
  Ti  Ti29      1.0  0.92971  0.26137  0.48529  1.0000
  Ti  Ti30      1.0  0.76851  0.56918  0.67756  1.0000
  Ti  Ti31      1.0  0.75416  0.43102  0.11154  1.0000
  Ti  Ti32      1.0  0.89071  0.03264  0.17991  1.0000
  Ti  Ti33      1.0  0.17262  0.08858  0.56332  1.0000
  Ti  Ti34      1.0  0.94523  0.75542  0.50718  1.0000
  Ti  Ti35      1.0  0.63404  0.50914  0.96230  1.0000
  Ti  Ti36      1.0  0.05587  0.42652  0.48432  1.0000
  Ti  Ti37      1.0  0.02037  0.25272  0.93893  1.0000
  Ti  Ti38      1.0  0.65987  0.25068  0.47592  1.0000
  Ti  Ti39      1.0  0.38089  0.17858  0.17482  1.0000
  Ti  Ti40      1.0  0.22307  0.60935  0.11211  1.0000
  Ti  Ti41      1.0  0.63834  0.51842  0.35758  1.0000
  Ti  Ti42      1.0  0.32345  0.80195  0.21546  1.0000
  Ti  Ti43      1.0  0.12380  0.90581  0.71633  1.0000
  Ti  Ti44      1.0  0.82477  0.70295  0.00398  1.0000
  Ti  Ti45      1.0  0.78865  0.37855  0.72841  1.0000
  Ti  Ti46      1.0  0.77543  0.08574  0.39097  1.0000
  Ti  Ti47      1.0  0.50412  0.34589  0.87763  1.0000
  Ti  Ti48      1.0  0.44014  0.52730  0.19071  1.0000
  Ti  Ti49      1.0  0.92611  0.75537  0.75819  1.0000
  Ti  Ti50      1.0  0.66089  0.99660  0.90623  1.0000
  Ti  Ti51      1.0  0.77541  0.06591  0.95572  1.0000
  Ti  Ti52      1.0  0.39655  0.32283  0.35464  1.0000
  Ti  Ti53      1.0  0.04055  0.81183  0.18221  1.0000
  Ti  Ti54      1.0  0.15081  0.13688  0.03646  1.0000
  Ti  Ti55      1.0  0.01270  0.82337  0.80030  1.0000
  Ti  Ti56      1.0  0.29572  0.66456  0.47971  1.0000
  Ti  Ti57      1.0  0.68628  0.32742  0.12615  1.0000
  Ti  Ti58      1.0  0.08766  0.97011  0.67957  1.0000
  Ti  Ti59      1.0  0.54076  0.11583  0.19696  1.0000
  Ti  Ti60      1.0  0.66571  0.77337  0.00691  1.0000
  Ti  Ti61      1.0  0.27661  0.90546  0.94006  1.0000
  Ti  Ti62      1.0  0.39442  0.15745  0.85798  1.0000
  Ti  Ti63      1.0  0.10803  0.37319  0.09217  1.0000
  Ti  Ti64      1.0  0.94134  0.46131  0.13651  1.0000
  Ti  Ti65      1.0  0.96423  0.02384  0.49846  1.0000
  Ti  Ti66      1.0  0.32131  0.44375  0.78755  1.0000
  Ti  Ti67      1.0  0.75732  0.64394  0.40646  1.0000
  Ti  Ti68      1.0  0.63445  0.92679  0.28023  1.0000
  Ti  Ti69      1.0  0.28895  0.46774  0.41315  1.0000
  Ti  Ti70      1.0  0.49629  0.94502  0.56424  1.0000
  Ti  Ti71      1.0  0.41416  0.87573  0.88583  1.0000
  Ti  Ti72      1.0  0.32307  0.76728  0.67414  1.0000
  Ti  Ti73      1.0  0.43729  0.51740  0.55809  1.0000
  Ti  Ti74      1.0  0.15923  0.21142  0.58727  1.0000
  Ti  Ti75      1.0  0.26176  0.34930  0.87926  1.0000
  Ti  Ti76      1.0  0.74555  0.58043  0.79876  1.0000
  Ti  Ti77      1.0  0.55027  0.68819  0.57110  1.0000
  Ti  Ti78      1.0  0.90248  0.34121  0.48880  1.0000
  Ti  Ti79      1.0  0.22822  0.04920  0.58019  1.0000
  Ti  Ti80      1.0  0.81435  0.42235  0.10105  1.0000
  Ti  Ti81      1.0  0.96927  0.00807  0.13496  1.0000
  Ti  Ti82      1.0  0.87663  0.76675  0.49077  1.0000
  Ti  Ti83      1.0  0.63668  0.43868  0.90733  1.0000
  Ti  Ti84      1.0  0.05724  0.39245  0.62305  1.0000
  Ti  Ti85      1.0  0.97522  0.24818  0.89179  1.0000
  Ti  Ti86      1.0  0.58444  0.30368  0.42222  1.0000
  Ti  Ti87      1.0  0.33346  0.18288  0.29279  1.0000
  Ti  Ti88      1.0  0.22950  0.56709  0.05888  1.0000
  Ti  Ti89      1.0  0.60613  0.47281  0.30593  1.0000
  Ti  Ti90      1.0  0.32542  0.73510  0.19142  1.0000
  Ti  Ti91      1.0  0.84910  0.34991  0.75386  1.0000
  Ti  Ti92      1.0  0.96313  0.04961  0.86286  1.0000
  Ti  Ti93      1.0  0.84259  0.62447  0.03361  1.0000
  Ti  Ti94      1.0  0.45071  0.51531  0.08044  1.0000
  Ti  Ti95      1.0  0.72960  0.08288  0.41073  1.0000
  Ti  Ti96      1.0  0.52894  0.38595  0.90732  1.0000
  I   I1        1.0  0.70625  0.95088  0.91341  1.0000
  I   I2        1.0  0.80259  0.04762  0.02948  1.0000
  I   I3        1.0  0.87905  0.78201  0.95171  1.0000
  I   I4        1.0  0.02403  0.78369  0.14152  1.0000
  I   I5        1.0  0.15312  0.08216  0.08148  1.0000
  I   I6        1.0  0.14348  0.11225  0.96744  1.0000
  I   I7        1.0  0.29111  0.62513  0.44996  1.0000
  I   I8        1.0  0.23244  0.70531  0.47900  1.0000
  I   I9        1.0  0.74534  0.25801  0.28353  1.0000
  I   I10       1.0  0.57560  0.13637  0.21873  1.0000
  I   I11       1.0  0.14930  0.58361  0.69966  1.0000
  I   I12       1.0  0.16670  0.74385  0.17789  1.0000
  I   I13       1.0  0.41792  0.17964  0.91889  1.0000
  I   I14       1.0  0.10113  0.41173  0.03757  1.0000
  I   I15       1.0  0.21087  0.97704  0.97525  1.0000
  I   I16       1.0  0.97728  0.06092  0.53955  1.0000
  I   I17       1.0  0.36260  0.41472  0.83208  1.0000
  I   I18       1.0  0.89321  0.48141  0.10657  1.0000
  I   I19       1.0  0.61042  0.97712  0.26394  1.0000
  I   I20       1.0  0.22514  0.52658  0.54977  1.0000
  I   I21       1.0  0.32763  0.42127  0.39073  1.0000
  I   I22       1.0  0.43807  0.91066  0.87535  1.0000
  I   I23       1.0  0.51550  0.86378  0.83727  1.0000
  I   I24       1.0  0.50596  0.98322  0.61752  1.0000
  I   I25       1.0  0.17402  0.24094  0.64020  1.0000
  I   I26       1.0  0.23268  0.44545  0.96138  1.0000
  I   I27       1.0  0.43684  0.50874  0.46253  1.0000
  I   I28       1.0  0.59378  0.68437  0.50730  1.0000
  I   I29       1.0  0.90899  0.24029  0.43464  1.0000
  I   I30       1.0  0.74271  0.55832  0.61359  1.0000
  I   I31       1.0  0.81363  0.41211  0.01162  1.0000
  I   I32       1.0  0.99564  0.00117  0.05992  1.0000
  I   I33       1.0  0.21803  0.06227  0.49147  1.0000
  I   I34       1.0  0.60723  0.54824  0.91128  1.0000
  I   I35       1.0  0.07525  0.39524  0.70416  1.0000
  I   I36       1.0  0.89261  0.80092  0.52072  1.0000
  I   I37       1.0  0.00024  0.21924  0.97501  1.0000
  I   I38       1.0  0.36979  0.20555  0.26185  1.0000
  I   I39       1.0  0.93003  0.24874  0.89187  1.0000
  I   I40       1.0  0.62859  0.46045  0.39004  1.0000
  I   I41       1.0  0.28552  0.78855  0.20359  1.0000
  I   I42       1.0  0.28278  0.54479  0.08685  1.0000
  I   I43       1.0  0.09030  0.92519  0.62770  1.0000
  I   I44       1.0  0.86419  0.58060  0.99500  1.0000
  I   I45       1.0  0.81800  0.40503  0.73915  1.0000
  I   I46       1.0  0.82458  0.06421  0.40062  1.0000
  I   I47       1.0  0.45403  0.35699  0.89576  1.0000
  I   I48       1.0  0.42333  0.57724  0.18713  1.0000
  I   I49       1.0  0.82852  0.80663  0.86369  1.0000
  I   I50       1.0  0.68554  0.02880  0.95775  1.0000
  I   I51       1.0  0.72049  0.08189  0.96693  1.0000
  I   I52       1.0  0.41769  0.26923  0.38498  1.0000
  I   I53       1.0  0.07354  0.81184  0.25568  1.0000
  I   I54       1.0  0.15223  0.17675  0.98833  1.0000
  I   I55       1.0  0.00058  0.90713  0.79226  1.0000
  I   I56       1.0  0.22688  0.68039  0.36398  1.0000
  I   I57       1.0  0.68107  0.32635  0.22993  1.0000
  I   I58       1.0  0.57268  0.08598  0.27218  1.0000
  I   I59       1.0  0.53709  0.14571  0.38257  1.0000
  I   I60       1.0  0.64540  0.74446  0.03333  1.0000
  I   I61       1.0  0.43476  0.11010  0.86994  1.0000
  I   I62       1.0  0.36789  0.15189  0.92844  1.0000
  I   I63       1.0  0.13261  0.35833  0.17842  1.0000
  I   I64       1.0  0.01817  0.07820  0.44700  1.0000
  I   I65       1.0  0.93349  0.05581  0.42119  1.0000
  I   I66       1.0  0.28534  0.45297  0.84825  1.0000
  I   I67       1.0  0.76828  0.64506  0.49274  1.0000
  I   I68       1.0  0.75115  0.82507  0.30532  1.0000
  I   I69       1.0  0.24426  0.45069  0.48558  1.0000
  I   I70       1.0  0.49876  0.90574  0.51291  1.0000
  I   I71       1.0  0.41322  0.88026  0.97739  1.0000
  I   I72       1.0  0.27674  0.80058  0.64878  1.0000
  I   I73       1.0  0.48451  0.51059  0.55121  1.0000
  I   I74       1.0  0.28214  0.33904  0.96902  1.0000
  I   I75       1.0  0.25136  0.39616  0.85426  1.0000
  I   I76       1.0  0.64766  0.60816  0.54233  1.0000
  I   I77       1.0  0.60099  0.64400  0.66571  1.0000
  I   I78       1.0  0.93237  0.36277  0.47814  1.0000
  I   I79       1.0  0.27387  0.04903  0.56730  1.0000
  I   I80       1.0  0.74642  0.39098  0.11743  1.0000
  I   I81       1.0  0.89017  0.99432  0.12950  1.0000
  I   I82       1.0  0.92529  0.74416  0.42858  1.0000
  I   I83       1.0  0.61665  0.52990  0.04026  1.0000
  I   I84       1.0  0.03192  0.40720  0.53329  1.0000
  I   I85       1.0  0.96405  0.28485  0.94743  1.0000
  I   I86       1.0  0.56339  0.35172  0.39808  1.0000
  I   I87       1.0  0.43116  0.14565  0.17108  1.0000
  I   I88       1.0  0.23076  0.61999  0.02529  1.0000
  I   I89       1.0  0.56023  0.47561  0.29783  1.0000
  I   I90       1.0  0.31676  0.82433  0.29820  1.0000
  I   I91       1.0  0.81803  0.36373  0.83659  1.0000
  I   I92       1.0  0.93954  0.07499  0.93879  1.0000
  I   I93       1.0  0.86757  0.65338  0.99633  1.0000
  I   I94       1.0  0.39513  0.54105  0.23831  1.0000
  I   I95       1.0  0.69260  0.08717  0.46292  1.0000
  I   I96       1.0  0.49259  0.40991  0.84718  1.0000
  I   I97       1.0  0.67519  0.85054  0.58489  1.0000
  I   I98       1.0  0.88159  0.75312  0.78780  1.0000
  I   I99       1.0  0.76558  0.02228  0.95978  1.0000
  I   I100      1.0  0.50034  0.25726  0.33680  1.0000
  I   I101      1.0  0.37197  0.30980  0.29597  1.0000
  I   I102      1.0  0.09162  0.77582  0.14833  1.0000
  I   I103      1.0  0.01283  0.77910  0.81425  1.0000
  I   I104      1.0  0.95168  0.89873  0.74639  1.0000
  I   I105      1.0  0.63740  0.35695  0.13966  1.0000
  I   I106      1.0  0.57050  0.86502  0.04313  1.0000
  I   I107      1.0  0.61791  0.09164  0.36575  1.0000
  I   I108      1.0  0.70946  0.74347  0.04977  1.0000
  I   I109      1.0  0.26315  0.92009  0.83762  1.0000
  I   I110      1.0  0.37481  0.14705  0.78958  1.0000
  I   I111      1.0  0.06717  0.40955  0.15234  1.0000
  I   I112      1.0  0.91507  0.45224  0.21372  1.0000
  I   I113      1.0  0.00379  0.01156  0.43635  1.0000
  I   I114      1.0  0.17166  0.51578  0.01932  1.0000
  I   I115      1.0  0.72332  0.65012  0.30956  1.0000
  I   I116      1.0  0.75864  0.59775  0.41270  1.0000
  I   I117      1.0  0.58835  0.93203  0.24167  1.0000
  I   I118      1.0  0.46997  0.98329  0.49724  1.0000
  I   I119      1.0  0.40005  0.99382  0.47065  1.0000
  I   I120      1.0  0.34493  0.79406  0.64303  1.0000
  I   I121      1.0  0.49419  0.43534  0.48234  1.0000
  I   I122      1.0  0.18627  0.17314  0.53396  1.0000
  I   I123      1.0  0.29667  0.38993  0.96880  1.0000
  I   I124      1.0  0.72619  0.60794  0.70424  1.0000
  I   I125      1.0  0.51688  0.71373  0.50990  1.0000
  I   I126      1.0  0.85360  0.37171  0.49671  1.0000
  I   I127      1.0  0.13385  0.12211  0.61300  1.0000
  I   I128      1.0  0.71560  0.46516  0.16453  1.0000
  I   I129      1.0  0.96971  0.96491  0.16047  1.0000
  I   I130      1.0  0.02543  0.44799  0.41089  1.0000
  I   I131      1.0  0.96349  0.78195  0.45040  1.0000
  I   I132      1.0  0.67933  0.40087  0.87200  1.0000
  I   I133      1.0  0.35977  0.15696  0.11933  1.0000
  I   I134      1.0  0.61401  0.30445  0.49741  1.0000
  I   I135      1.0  0.66483  0.24957  0.56798  1.0000
  I   I136      1.0  0.29783  0.84328  0.17066  1.0000
  I   I137      1.0  0.17575  0.59784  0.07570  1.0000
  I   I138      1.0  0.64815  0.55429  0.32442  1.0000
  I   I139      1.0  0.77503  0.34347  0.71230  1.0000
  I   I140      1.0  0.93567  0.04763  0.79671  1.0000
  I   I141      1.0  0.81045  0.61312  0.08419  1.0000
  I   I142      1.0  0.48483  0.51728  0.13679  1.0000
  I   I143      1.0  0.77345  0.08616  0.30336  1.0000
  I   I144      1.0  0.52377  0.29806  0.87657  1.0000
  I   I145      1.0  0.93164  0.76979  0.85404  1.0000
  I   I146      1.0  0.73886  0.04677  0.09621  1.0000
  I   I147      1.0  0.74680  0.78829  0.59313  1.0000
  I   I148      1.0  0.35961  0.33718  0.42078  1.0000
  I   I149      1.0  0.03542  0.85151  0.12524  1.0000
  I   I150      1.0  0.17826  0.05958  0.19934  1.0000
  I   I151      1.0  0.05762  0.81683  0.78302  1.0000
  I   I152      1.0  0.28221  0.66357  0.56840  1.0000
  I   I153      1.0  0.74496  0.22630  0.17664  1.0000
  I   I154      1.0  0.09707  0.99678  0.74552  1.0000
  I   I155      1.0  0.17748  0.51877  0.65224  1.0000
  I   I156      1.0  0.63295  0.87251  0.07430  1.0000
  I   I157      1.0  0.30565  0.86117  0.91273  1.0000
  I   I158      1.0  0.07631  0.35240  0.09977  1.0000
  I   I159      1.0  0.27919  0.90638  0.03477  1.0000
  I   I160      1.0  0.95388  0.49699  0.10874  1.0000
  I   I161      1.0  0.18251  0.45284  0.08338  1.0000
  I   I162      1.0  0.96060  0.37781  0.19872  1.0000
  I   I163      1.0  0.69793  0.66902  0.42710  1.0000
  I   I164      1.0  0.71960  0.90739  0.32429  1.0000
  I   I165      1.0  0.30000  0.47805  0.49159  1.0000
  I   I166      1.0  0.44825  0.95660  0.58522  1.0000
  I   I167      1.0  0.49580  0.83611  0.97354  1.0000
  I   I168      1.0  0.60569  0.93493  0.55575  1.0000
  I   I169      1.0  0.25510  0.16528  0.53391  1.0000
  I   I170      1.0  0.22565  0.16836  0.65827  1.0000
  I   I171      1.0  0.45775  0.46040  0.61086  1.0000
  I   I172      1.0  0.77252  0.55679  0.86697  1.0000
  I   I173      1.0  0.88527  0.30311  0.50694  1.0000
  I   I174      1.0  0.80571  0.52658  0.70036  1.0000
  I   I175      1.0  0.83290  0.45253  0.12318  1.0000
  I   I176      1.0  0.91582  0.03429  0.09824  1.0000
  I   I177      1.0  0.20748  0.10829  0.59618  1.0000
  I   I178      1.0  0.95812  0.76970  0.58266  1.0000
  I   I179      1.0  0.67895  0.50995  0.96164  1.0000
  I   I180      1.0  0.10201  0.40863  0.44475  1.0000
  I   I181      1.0  0.01860  0.27958  0.86189  1.0000
  I   I182      1.0  0.54793  0.29439  0.39806  1.0000
  I   I183      1.0  0.37870  0.21200  0.11247  1.0000
  I   I184      1.0  0.18617  0.65308  0.13984  1.0000
  I   I185      1.0  0.68029  0.48815  0.39988  1.0000
  I   I186      1.0  0.29068  0.72197  0.20166  1.0000
  I   I187      1.0  0.98031  0.07829  0.82469  1.0000
  I   I188      1.0  0.80402  0.66938  0.97342  1.0000
  I   I189      1.0  0.83651  0.35037  0.65919  1.0000
  I   I190      1.0  0.74692  0.09924  0.49022  1.0000
  I   I191      1.0  0.56790  0.39328  0.86175  1.0000
  I   I192      1.0  0.39948  0.54011  0.07849  1.0000
  I   I193      1.0  0.92871  0.72592  0.68589  1.0000
  I   I194      1.0  0.63462  0.98309  0.84462  1.0000
  I   I195      1.0  0.69613  0.80130  0.47704  1.0000
  I   I196      1.0  0.43476  0.31692  0.26222  1.0000
  I   I197      1.0  0.15572  0.91422  0.65766  1.0000
  I   I198      1.0  0.10343  0.16355  0.07115  1.0000
  I   I199      1.0  0.95374  0.90673  0.89532  1.0000
  I   I200      1.0  0.34364  0.64393  0.45819  1.0000
  I   I201      1.0  0.67780  0.26308  0.26689  1.0000
  I   I202      1.0  0.55437  0.11529  0.10331  1.0000
  I   I203      1.0  0.17586  0.60152  0.59213  1.0000
  I   I204      1.0  0.67853  0.75657  0.91912  1.0000
  I   I205      1.0  0.43176  0.23252  0.81557  1.0000
  I   I206      1.0  0.15981  0.39188  0.11506  1.0000
  I   I207      1.0  0.30294  0.93248  0.93625  1.0000
  I   I208      1.0  0.99428  0.06996  0.34792  1.0000
  I   I209      1.0  0.21994  0.46997  0.16881  1.0000
  I   I210      1.0  0.92525  0.41060  0.31714  1.0000
  I   I211      1.0  0.73764  0.70413  0.39360  1.0000
  I   I212      1.0  0.72817  0.86006  0.18470  1.0000
  I   I213      1.0  0.16720  0.52334  0.46991  1.0000
  I   I214      1.0  0.43265  0.90936  0.51233  1.0000
  I   I215      1.0  0.36958  0.91618  0.86225  1.0000
  I   I216      1.0  0.55664  0.00904  0.59105  1.0000
  I   I217      1.0  0.17622  0.23008  0.50753  1.0000
  I   I218      1.0  0.23967  0.38512  0.05234  1.0000
  I   I219      1.0  0.39593  0.50333  0.54399  1.0000
  I   I220      1.0  0.51804  0.68337  0.63280  1.0000
  I   I221      1.0  0.90687  0.32378  0.39660  1.0000
  I   I222      1.0  0.79524  0.58509  0.61360  1.0000
  I   I223      1.0  0.79271  0.41803  0.19534  1.0000
  I   I224      1.0  0.84730  0.07193  0.15421  1.0000
  I   I225      1.0  0.14786  0.10971  0.49015  1.0000
  I   I226      1.0  0.90789  0.73292  0.54399  1.0000
  I   I227      1.0  0.66413  0.46638  0.90016  1.0000
  I   I228      1.0  0.08822  0.34434  0.60358  1.0000
  I   I229      1.0  0.06667  0.24022  0.96058  1.0000
  I   I230      1.0  0.69284  0.26437  0.45131  1.0000
  I   I231      1.0  0.29909  0.21020  0.23017  1.0000
  I   I232      1.0  0.26096  0.61242  0.15661  1.0000
  I   I233      1.0  0.61206  0.54363  0.43013  1.0000
  I   I234      1.0  0.37378  0.69937  0.17584  1.0000
  I   I235      1.0  0.13988  0.85823  0.69520  1.0000
  I   I236      1.0  0.77794  0.74212  0.97004  1.0000
  I   I237      1.0  0.75092  0.40954  0.78558  1.0000
  I   I238      1.0  0.77864  0.03954  0.41650  1.0000
  I   I239      1.0  0.49549  0.37447  0.96552  1.0000
  I   I240      1.0  0.44566  0.48357  0.15495  1.0000
  I   I241      1.0  0.87130  0.83754  0.87696  1.0000
  I   I242      1.0  0.72584  0.99288  0.05333  1.0000
  I   I243      1.0  0.73498  0.85609  0.52068  1.0000
  I   I244      1.0  0.44226  0.24845  0.27101  1.0000
  I   I245      1.0  0.13387  0.82049  0.17933  1.0000
  I   I246      1.0  0.23273  0.04518  0.12435  1.0000
  I   I247      1.0  0.96110  0.84263  0.84956  1.0000
  I   I248      1.0  0.23099  0.74605  0.34541  1.0000
  I   I249      1.0  0.69318  0.27983  0.11642  1.0000
  I   I250      1.0  0.59637  0.15945  0.32220  1.0000
  I   I251      1.0  0.22445  0.54195  0.70508  1.0000
  I   I252      1.0  0.61772  0.80586  0.97009  1.0000
  I   I253      1.0  0.35750  0.23839  0.86162  1.0000
  I   I254      1.0  0.11016  0.45316  0.13913  1.0000
  I   I255      1.0  0.22300  0.91730  0.92842  1.0000
  I   I256      1.0  0.93192  0.03318  0.56879  1.0000
  I   I257      1.0  0.14107  0.52025  0.14549  1.0000
  I   I258      1.0  0.97901  0.42492  0.08500  1.0000
  I   I259      1.0  0.64842  0.72165  0.34398  1.0000
  I   I260      1.0  0.67293  0.87118  0.25215  1.0000
  I   I261      1.0  0.23306  0.53246  0.42589  1.0000
  I   I262      1.0  0.45631  0.94016  0.39669  1.0000
  I   I263      1.0  0.49028  0.90374  0.95471  1.0000
  I   I264      1.0  0.58285  0.95875  0.68853  1.0000
  I   I265      1.0  0.24250  0.22215  0.59179  1.0000
  I   I266      1.0  0.30304  0.31292  0.84514  1.0000
  I   I267      1.0  0.43638  0.42570  0.49734  1.0000
  I   I268      1.0  0.56625  0.63733  0.56844  1.0000
  I   I269      1.0  0.93900  0.22315  0.55058  1.0000
  I   I270      1.0  0.77948  0.59557  0.74922  1.0000
  I   I271      1.0  0.76318  0.46992  0.07431  1.0000
  I   I272      1.0  0.87513  0.02180  0.25611  1.0000
  I   I273      1.0  0.15905  0.05133  0.57153  1.0000
  I   I274      1.0  0.83217  0.78155  0.53480  1.0000
  I   I275      1.0  0.60184  0.48794  0.94350  1.0000
  I   I276      1.0  0.08540  0.41488  0.57256  1.0000
  I   I277      1.0  0.00966  0.28893  0.01714  1.0000
  I   I278      1.0  0.69064  0.20299  0.45532  1.0000
  I   I279      1.0  0.31241  0.15464  0.32424  1.0000
  I   I280      1.0  0.23603  0.56063  0.96749  1.0000
  I   I281      1.0  0.65465  0.48020  0.28747  1.0000
  I   I282      1.0  0.36745  0.77524  0.16390  1.0000
  I   I283      1.0  0.07864  0.94834  0.76574  1.0000
  I   I284      1.0  0.85302  0.70937  0.93984  1.0000
  I   I285      1.0  0.76544  0.40608  0.65832  1.0000
  I   I286      1.0  0.77188  0.13249  0.41040  1.0000
  I   I287      1.0  0.53062  0.41018  0.98156  1.0000
  I   I288      1.0  0.46757  0.52505  0.26792  1.0000
  I   I289      1.0  0.91897  0.79687  0.71266  1.0000
  I   I290      1.0  0.67036  0.02043  0.83700  1.0000
  I   I291      1.0  0.81447  0.06612  0.91046  1.0000
  I   I292      1.0  0.38495  0.37064  0.31721  1.0000
  I   I293      1.0  0.01392  0.81400  0.26387  1.0000
  I   I294      1.0  0.20807  0.11508  0.06768  1.0000
  I   I295      1.0  0.01824  0.83002  0.89418  1.0000
  I   I296      1.0  0.28854  0.71333  0.44560  1.0000
  I   I297      1.0  0.68976  0.35634  0.05387  1.0000
  I   I298      1.0  0.03719  0.00934  0.66593  1.0000
  I   I299      1.0  0.49995  0.16453  0.19431  1.0000
  I   I300      1.0  0.67008  0.81713  0.98440  1.0000
  I   I301      1.0  0.23286  0.99854  0.85820  1.0000
  I   I302      1.0  0.38825  0.21928  0.74167  1.0000
  I   I303      1.0  0.10386  0.42175  0.26304  1.0000
  I   I304      1.0  0.00175  0.38777  0.30307  1.0000
  I   I305      1.0  0.93927  0.12205  0.45732  1.0000
  I   I306      1.0  0.31242  0.42444  0.71308  1.0000
  I   I307      1.0  0.70350  0.71870  0.27078  1.0000
  I   I308      1.0  0.67961  0.92730  0.23837  1.0000
  I   I309      1.0  0.24341  0.47030  0.37775  1.0000
  I   I310      1.0  0.50163  0.92366  0.65041  1.0000
  I   I311      1.0  0.46266  0.83943  0.85731  1.0000
  I   I312      1.0  0.31217  0.75760  0.75903  1.0000
  I   I313      1.0  0.43737  0.53379  0.64609  1.0000
  I   I314      1.0  0.11757  0.23043  0.53536  1.0000
  I   I315      1.0  0.21417  0.37915  0.93454  1.0000
  I   I316      1.0  0.74001  0.54051  0.77391  1.0000
  I   I317      1.0  0.56063  0.71869  0.62288  1.0000
  I   I318      1.0  0.97481  0.23742  0.44085  1.0000
  I   I319      1.0  0.20497  0.05768  0.65971  1.0000
  I   I320      1.0  0.72485  0.44482  0.03874  1.0000
  I   I321      1.0  0.93845  0.03136  0.21394  1.0000
  I   I322      1.0  0.85456  0.78422  0.40893  1.0000
  I   I323      1.0  0.59176  0.44339  0.87583  1.0000
  I   I324      1.0  0.01467  0.39455  0.65037  1.0000
  I   I325      1.0  0.96558  0.27663  0.81671  1.0000
  I   I326      1.0  0.61662  0.24918  0.44028  1.0000
  I   I327      1.0  0.35379  0.18047  0.37730  1.0000
  I   I328      1.0  0.22414  0.52261  0.07409  1.0000
  I   I329      1.0  0.58985  0.52367  0.33927  1.0000
  I   I330      1.0  0.34243  0.75243  0.27695  1.0000
  I   I331      1.0  0.89032  0.35753  0.75554  1.0000
  I   I332      1.0  0.14569  0.90575  0.79324  1.0000
  I   I333      1.0  0.85887  0.63230  0.11993  1.0000
  I   I334      1.0  0.46104  0.47784  0.01878  1.0000
  I   I335      1.0  0.71050  0.06551  0.34061  1.0000
  I   I336      1.0  0.49305  0.35249  0.78571  1.0000
  I   I337      1.0  0.97786  0.73255  0.75824  1.0000
  I   I338      1.0  0.61248  0.03115  0.93982  1.0000
  I   I339      1.0  0.75646  0.11540  0.96599  1.0000
  I   I340      1.0  0.44311  0.32545  0.39266  1.0000
  I   I341      1.0  0.13655  0.77971  0.30512  1.0000
  I   I342      1.0  0.15520  0.13789  0.14881  1.0000
  I   I343      1.0  0.99094  0.82376  0.71661  1.0000
  I   I344      1.0  0.29894  0.66792  0.34289  1.0000
  I   I345      1.0  0.73237  0.32002  0.16592  1.0000
  I   I346      1.0  0.11253  0.98027  0.61410  1.0000
  I   I347      1.0  0.51948  0.08862  0.17447  1.0000
  I   I348      1.0  0.64164  0.80659  0.10234  1.0000
  I   I349      1.0  0.19047  0.97411  0.82574  1.0000
  I   I350      1.0  0.43860  0.16043  0.78635  1.0000
  I   I351      1.0  0.15382  0.34301  0.04923  1.0000
  I   I352      1.0  0.97890  0.44297  0.20414  1.0000
  I   I353      1.0  0.97491  0.97411  0.49676  1.0000
  I   I354      1.0  0.33333  0.48051  0.76620  1.0000
  I   I355      1.0  0.79894  0.63218  0.35811  1.0000
  I   I356      1.0  0.64393  0.92040  0.36978  1.0000
  I   I357      1.0  0.30116  0.49378  0.35208  1.0000
  I   I358      1.0  0.54862  0.92846  0.55124  1.0000
  I   I359      1.0  0.38906  0.84888  0.87023  1.0000
  I   I360      1.0  0.33625  0.72704  0.62512  1.0000
  I   I361      1.0  0.41487  0.56614  0.53349  1.0000
  I   I362      1.0  0.13895  0.18876  0.64607  1.0000
  I   I363      1.0  0.23707  0.34737  0.80548  1.0000
  I   I364      1.0  0.69985  0.61506  0.82333  1.0000
  I   I365      1.0  0.64975  0.65898  0.60753  1.0000
  I   I366      1.0  0.95010  0.29194  0.53090  1.0000
  I   I367      1.0  0.24963  0.00036  0.60984  1.0000
  I   I368      1.0  0.84807  0.37452  0.12929  1.0000
  I   I369      1.0  0.00407  0.01684  0.17934  1.0000
  I   I370      1.0  0.99078  0.71412  0.50169  1.0000
  I   I371      1.0  0.64214  0.41417  0.99315  1.0000
  I   I372      1.0  0.04580  0.47285  0.51464  1.0000
  I   I373      1.0  0.02891  0.22085  0.86142  1.0000
  I   I374      1.0  0.61833  0.28958  0.35344  1.0000
  I   I375      1.0  0.37267  0.14356  0.24268  1.0000
  I   I376      1.0  0.22540  0.57158  0.16706  1.0000
  I   I377      1.0  0.62494  0.42890  0.25502  1.0000
  I   I378      1.0  0.32412  0.75637  0.10800  1.0000
  I   I379      1.0  0.87255  0.30080  0.76925  1.0000
  I   I380      1.0  0.00072  0.00740  0.89024  1.0000
  I   I381      1.0  0.83005  0.72165  0.08576  1.0000
  I   I382      1.0  0.45989  0.54393  0.00986  1.0000
  I   I383      1.0  0.70697  0.13295  0.36785  1.0000
  I   I384      1.0  0.55486  0.33546  0.89237  1.0000
