data_image0
_chemical_formula_structural       Ti96I384
_chemical_formula_sum              "Ti96 I384"
_cell_length_a       49.3945
_cell_length_b       49.0603
_cell_length_c       23.8966
_cell_angle_alpha    88.7757
_cell_angle_beta     88.7757
_cell_angle_gamma    62.1586

_space_group_name_H-M_alt    "P 1"
_space_group_IT_number       1

loop_
  _space_group_symop_operation_xyz
  'x, y, z'

loop_
  _atom_site_type_symbol
  _atom_site_label
  _atom_site_symmetry_multiplicity
  _atom_site_fract_x
  _atom_site_fract_y
  _atom_site_fract_z
  _atom_site_occupancy
  Ti  Ti1       1.0  0.39599  0.95048  0.42840  1.0000
  Ti  Ti2       1.0  0.13889  0.04529  0.04089  1.0000
  Ti  Ti3       1.0  0.32512  0.95898  0.14724  1.0000
  Ti  Ti4       1.0  0.13160  0.20477  0.48635  1.0000
  Ti  Ti5       1.0  0.10398  0.35491  0.86633  1.0000
  Ti  Ti6       1.0  0.19516  0.20391  0.01136  1.0000
  Ti  Ti7       1.0  0.93556  0.69641  0.18349  1.0000
  Ti  Ti8       1.0  0.90846  0.88963  0.62724  1.0000
  Ti  Ti9       1.0  0.84516  0.86840  0.12547  1.0000
  Ti  Ti10      1.0  0.05062  0.85085  0.14747  1.0000
  Ti  Ti11      1.0  0.14356  0.81563  0.72233  1.0000
  Ti  Ti12      1.0  0.05203  0.70744  0.64726  1.0000
  Ti  Ti13      1.0  0.40331  0.15358  0.37983  1.0000
  Ti  Ti14      1.0  0.36648  0.03886  0.77546  1.0000
  Ti  Ti15      1.0  0.38372  0.11210  0.08864  1.0000
  Ti  Ti16      1.0  0.26365  0.63971  0.84855  1.0000
  Ti  Ti17      1.0  0.20928  0.61401  0.12736  1.0000
  Ti  Ti18      1.0  0.32808  0.45891  0.71848  1.0000
  Ti  Ti19      1.0  0.39649  0.73974  0.12941  1.0000
  Ti  Ti20      1.0  0.64185  0.54463  0.62614  1.0000
  Ti  Ti21      1.0  0.38219  0.67939  0.42520  1.0000
  Ti  Ti22      1.0  0.30408  0.90161  0.73775  1.0000
  Ti  Ti23      1.0  0.53873  0.85604  0.81929  1.0000
  Ti  Ti24      1.0  0.44733  0.77322  0.59245  1.0000
  Ti  Ti25      1.0  0.52863  0.24150  0.69783  1.0000
  Ti  Ti26      1.0  0.42043  0.30998  0.96543  1.0000
  Ti  Ti27      1.0  0.51312  0.23898  0.41281  1.0000
  Ti  Ti28      1.0  0.54736  0.39369  0.32512  1.0000
  Ti  Ti29      1.0  0.69492  0.36144  0.94834  1.0000
  Ti  Ti30      1.0  0.52676  0.46802  0.01742  1.0000
  Ti  Ti31      1.0  0.73556  0.55862  0.35284  1.0000
  Ti  Ti32      1.0  0.84814  0.46946  0.78222  1.0000
  Ti  Ti33      1.0  0.78059  0.54962  0.06064  1.0000
  Ti  Ti34      1.0  0.77182  0.76362  0.91916  1.0000
  Ti  Ti35      1.0  0.57456  0.79040  0.28871  1.0000
  Ti  Ti36      1.0  0.76740  0.67829  0.59917  1.0000
  Ti  Ti37      1.0  0.75760  0.19835  0.00070  1.0000
  Ti  Ti38      1.0  0.90766  0.15096  0.13197  1.0000
  Ti  Ti39      1.0  0.82663  0.17507  0.52990  1.0000
  Ti  Ti40      1.0  0.91444  0.38255  0.18567  1.0000
  Ti  Ti41      1.0  0.93193  0.26632  0.42282  1.0000
  Ti  Ti42      1.0  0.10402  0.02326  0.40679  1.0000
  Ti  Ti43      1.0  0.08274  0.45640  0.23759  1.0000
  Ti  Ti44      1.0  0.09145  0.48761  0.54868  1.0000
  Ti  Ti45      1.0  0.09345  0.52446  0.82351  1.0000
  Ti  Ti46      1.0  0.74910  0.99391  0.41257  1.0000
  Ti  Ti47      1.0  0.68819  0.04059  0.71638  1.0000
  Ti  Ti48      1.0  0.62022  0.05685  0.00493  1.0000
  Ti  Ti49      1.0  0.31899  0.00356  0.34501  1.0000
  Ti  Ti50      1.0  0.06870  0.07784  0.94784  1.0000
  Ti  Ti51      1.0  0.19603  0.01566  0.14294  1.0000
  Ti  Ti52      1.0  0.11708  0.26887  0.33584  1.0000
  Ti  Ti53      1.0  0.09126  0.34465  0.70114  1.0000
  Ti  Ti54      1.0  0.15345  0.24213  0.86086  1.0000
  Ti  Ti55      1.0  0.92725  0.76895  0.10009  1.0000
  Ti  Ti56      1.0  0.93068  0.93036  0.55894  1.0000
  Ti  Ti57      1.0  0.81212  0.94235  0.03439  1.0000
  Ti  Ti58      1.0  0.00975  0.93573  0.21261  1.0000
  Ti  Ti59      1.0  0.13305  0.79961  0.17894  1.0000
  Ti  Ti60      1.0  0.09300  0.76401  0.67730  1.0000
  Ti  Ti61      1.0  0.36915  0.13547  0.25076  1.0000
  Ti  Ti62      1.0  0.32473  0.23473  0.42367  1.0000
  Ti  Ti63      1.0  0.31593  0.11849  0.71875  1.0000
  Ti  Ti64      1.0  0.27788  0.43888  0.65895  1.0000
  Ti  Ti65      1.0  0.25744  0.59528  0.98649  1.0000
  Ti  Ti66      1.0  0.21956  0.58896  0.30269  1.0000
  Ti  Ti67      1.0  0.36662  0.75563  0.28869  1.0000
  Ti  Ti68      1.0  0.67799  0.57167  0.64604  1.0000
  Ti  Ti69      1.0  0.33227  0.70439  0.57030  1.0000
  Ti  Ti70      1.0  0.38404  0.84219  0.66237  1.0000
  Ti  Ti71      1.0  0.58877  0.88032  0.70022  1.0000
  Ti  Ti72      1.0  0.48635  0.84285  0.92441  1.0000
  Ti  Ti73      1.0  0.55291  0.17503  0.55708  1.0000
  Ti  Ti74      1.0  0.45976  0.24034  0.83528  1.0000
  Ti  Ti75      1.0  0.40076  0.30238  0.12322  1.0000
  Ti  Ti76      1.0  0.50376  0.53958  0.90198  1.0000
  Ti  Ti77      1.0  0.52390  0.46013  0.44136  1.0000
  Ti  Ti78      1.0  0.60803  0.39720  0.91854  1.0000
  Ti  Ti79      1.0  0.80264  0.56928  0.22886  1.0000
  Ti  Ti80      1.0  0.82143  0.52055  0.42443  1.0000
  Ti  Ti81      1.0  0.82596  0.53498  0.91021  1.0000
  Ti  Ti82      1.0  0.71974  0.73618  0.84211  1.0000
  Ti  Ti83      1.0  0.62498  0.75018  0.19622  1.0000
  Ti  Ti84      1.0  0.78357  0.72884  0.45520  1.0000
  Ti  Ti85      1.0  0.67862  0.19771  0.06394  1.0000
  Ti  Ti86      1.0  0.81884  0.18224  0.14567  1.0000
  Ti  Ti87      1.0  0.76580  0.21045  0.47180  1.0000
  Ti  Ti88      1.0  0.92800  0.31904  0.07963  1.0000
  Ti  Ti89      1.0  0.96007  0.26883  0.56904  1.0000
  Ti  Ti90      1.0  0.17504  0.91680  0.41837  1.0000
  Ti  Ti91      1.0  0.12513  0.50172  0.98404  1.0000
  Ti  Ti92      1.0  0.05116  0.47428  0.39415  1.0000
  Ti  Ti93      1.0  0.03738  0.52047  0.70290  1.0000
  Ti  Ti94      1.0  0.63207  0.04249  0.16704  1.0000
  Ti  Ti95      1.0  0.69361  0.98877  0.55046  1.0000
  Ti  Ti96      1.0  0.63244  0.01906  0.83711  1.0000
  I   I1        1.0  0.08098  0.02947  0.88906  1.0000
  I   I2        1.0  0.13555  0.04375  0.15934  1.0000
  I   I3        1.0  0.26352  0.03130  0.39008  1.0000
  I   I4        1.0  0.08368  0.29821  0.66664  1.0000
  I   I5        1.0  0.13388  0.30206  0.79297  1.0000
  I   I6        1.0  0.18848  0.16739  0.08979  1.0000
  I   I7        1.0  0.90721  0.99170  0.57692  1.0000
  I   I8        1.0  0.86634  0.94143  0.67311  1.0000
  I   I9        1.0  0.90509  0.82837  0.14668  1.0000
  I   I10       1.0  0.10198  0.80623  0.08325  1.0000
  I   I11       1.0  0.14454  0.76418  0.64377  1.0000
  I   I12       1.0  0.02093  0.94622  0.31163  1.0000
  I   I13       1.0  0.34917  0.17078  0.43919  1.0000
  I   I14       1.0  0.39117  0.07867  0.75498  1.0000
  I   I15       1.0  0.37309  0.08445  0.18659  1.0000
  I   I16       1.0  0.30424  0.60451  0.94875  1.0000
  I   I17       1.0  0.26134  0.55916  0.19107  1.0000
  I   I18       1.0  0.27096  0.39175  0.67712  1.0000
  I   I19       1.0  0.68015  0.52867  0.72616  1.0000
  I   I20       1.0  0.29108  0.75476  0.61064  1.0000
  I   I21       1.0  0.39774  0.73898  0.38890  1.0000
  I   I22       1.0  0.56583  0.90819  0.60904  1.0000
  I   I23       1.0  0.52070  0.92011  0.77545  1.0000
  I   I24       1.0  0.42109  0.84416  0.58117  1.0000
  I   I25       1.0  0.53136  0.19873  0.78651  1.0000
  I   I26       1.0  0.42442  0.25945  0.03280  1.0000
  I   I27       1.0  0.60735  0.14077  0.50644  1.0000
  I   I28       1.0  0.51933  0.47363  0.33001  1.0000
  I   I29       1.0  0.64367  0.33655  0.94082  1.0000
  I   I30       1.0  0.49083  0.49239  0.90563  1.0000
  I   I31       1.0  0.76923  0.57761  0.43513  1.0000
  I   I32       1.0  0.80623  0.54140  0.79719  1.0000
  I   I33       1.0  0.80327  0.58611  0.11931  1.0000
  I   I34       1.0  0.58051  0.76805  0.12329  1.0000
  I   I35       1.0  0.73609  0.77997  0.42510  1.0000
  I   I36       1.0  0.69040  0.70964  0.88637  1.0000
  I   I37       1.0  0.78222  0.16100  0.10445  1.0000
  I   I38       1.0  0.76339  0.26358  0.42759  1.0000
  I   I39       1.0  0.69879  0.15832  0.14460  1.0000
  I   I40       1.0  0.98933  0.21073  0.60794  1.0000
  I   I41       1.0  0.17326  0.86776  0.37539  1.0000
  I   I42       1.0  0.94066  0.37442  0.07943  1.0000
  I   I43       1.0  0.07952  0.41838  0.33776  1.0000
  I   I44       1.0  0.05224  0.47490  0.62897  1.0000
  I   I45       1.0  0.06546  0.52155  0.93039  1.0000
  I   I46       1.0  0.74819  0.95138  0.48731  1.0000
  I   I47       1.0  0.69209  0.98351  0.76706  1.0000
  I   I48       1.0  0.61480  0.01032  0.06532  1.0000
  I   I49       1.0  0.38411  0.96486  0.31806  1.0000
  I   I50       1.0  0.08620  0.10212  0.03880  1.0000
  I   I51       1.0  0.26233  0.98458  0.12962  1.0000
  I   I52       1.0  0.08541  0.25455  0.41726  1.0000
  I   I53       1.0  0.05311  0.35767  0.79282  1.0000
  I   I54       1.0  0.15737  0.19630  0.92941  1.0000
  I   I55       1.0  0.91582  0.71753  0.06952  1.0000
  I   I56       1.0  0.95926  0.86625  0.55257  1.0000
  I   I57       1.0  0.85108  0.87785  0.00992  1.0000
  I   I58       1.0  0.01364  0.82780  0.12746  1.0000
  I   I59       1.0  0.15366  0.83702  0.13988  1.0000
  I   I60       1.0  0.05214  0.75359  0.73316  1.0000
  I   I61       1.0  0.35888  0.18951  0.28287  1.0000
  I   I62       1.0  0.32094  0.29192  0.40039  1.0000
  I   I63       1.0  0.32573  0.15894  0.66985  1.0000
  I   I64       1.0  0.21151  0.66807  0.78966  1.0000
  I   I65       1.0  0.19953  0.58925  0.03839  1.0000
  I   I66       1.0  0.20855  0.54627  0.35399  1.0000
  I   I67       1.0  0.33569  0.76920  0.17934  1.0000
  I   I68       1.0  0.60743  0.58830  0.69386  1.0000
  I   I69       1.0  0.32122  0.71653  0.45286  1.0000
  I   I70       1.0  0.34234  0.83763  0.74549  1.0000
  I   I71       1.0  0.59249  0.85868  0.85278  1.0000
  I   I72       1.0  0.46526  0.80457  0.88723  1.0000
  I   I73       1.0  0.50725  0.20723  0.63328  1.0000
  I   I74       1.0  0.40078  0.28528  0.87411  1.0000
  I   I75       1.0  0.39026  0.33687  0.21257  1.0000
  I   I76       1.0  0.50034  0.40749  0.25638  1.0000
  I   I77       1.0  0.55449  0.44220  0.53626  1.0000
  I   I78       1.0  0.57476  0.45995  0.94596  1.0000
  I   I79       1.0  0.79971  0.53056  0.31545  1.0000
  I   I80       1.0  0.83880  0.46179  0.41692  1.0000
  I   I81       1.0  0.83819  0.51783  0.02773  1.0000
  I   I82       1.0  0.75016  0.77267  0.80945  1.0000
  I   I83       1.0  0.55900  0.74896  0.31931  1.0000
  I   I84       1.0  0.73844  0.71021  0.49718  1.0000
  I   I85       1.0  0.70529  0.23501  0.07255  1.0000
  I   I86       1.0  0.85219  0.21304  0.12634  1.0000
  I   I87       1.0  0.84801  0.16266  0.62957  1.0000
  I   I88       1.0  0.87015  0.36208  0.11426  1.0000
  I   I89       1.0  0.87450  0.31102  0.39160  1.0000
  I   I90       1.0  0.17008  0.97487  0.43956  1.0000
  I   I91       1.0  0.17274  0.50616  0.00633  1.0000
  I   I92       1.0  0.04301  0.52239  0.47740  1.0000
  I   I93       1.0  0.03641  0.56477  0.79088  1.0000
  I   I94       1.0  0.58714  0.04484  0.22266  1.0000
  I   I95       1.0  0.64840  0.03632  0.61059  1.0000
  I   I96       1.0  0.58467  0.05344  0.91247  1.0000
  I   I97       1.0  0.30624  0.96400  0.26193  1.0000
  I   I98       1.0  0.44009  0.96859  0.43930  1.0000
  I   I99       1.0  0.17814  0.07341  0.06432  1.0000
  I   I100      1.0  0.17191  0.25867  0.29037  1.0000
  I   I101      1.0  0.09249  0.19710  0.54977  1.0000
  I   I102      1.0  0.10733  0.30322  0.94190  1.0000
  I   I103      1.0  0.84234  0.81356  0.10614  1.0000
  I   I104      1.0  0.97845  0.64728  0.12656  1.0000
  I   I105      1.0  0.78817  0.94451  0.93285  1.0000
  I   I106      1.0  0.06701  0.66331  0.72417  1.0000
  I   I107      1.0  0.07713  0.79940  0.23131  1.0000
  I   I108      1.0  0.12547  0.77514  0.77999  1.0000
  I   I109      1.0  0.42137  0.12441  0.17749  1.0000
  I   I110      1.0  0.38688  0.21905  0.41850  1.0000
  I   I111      1.0  0.40221  0.97918  0.74966  1.0000
  I   I112      1.0  0.33901  0.40609  0.63877  1.0000
  I   I113      1.0  0.22848  0.66049  0.95206  1.0000
  I   I114      1.0  0.17833  0.59468  0.20904  1.0000
  I   I115      1.0  0.34926  0.70629  0.31479  1.0000
  I   I116      1.0  0.41879  0.68173  0.11027  1.0000
  I   I117      1.0  0.63810  0.49038  0.62371  1.0000
  I   I118      1.0  0.37622  0.79919  0.59778  1.0000
  I   I119      1.0  0.29023  0.92339  0.83705  1.0000
  I   I120      1.0  0.51550  0.88419  0.92594  1.0000
  I   I121      1.0  0.56038  0.22720  0.47583  1.0000
  I   I122      1.0  0.46873  0.27731  0.73612  1.0000
  I   I123      1.0  0.36751  0.34062  0.02730  1.0000
  I   I124      1.0  0.49563  0.53063  0.02564  1.0000
  I   I125      1.0  0.58465  0.39412  0.24364  1.0000
  I   I126      1.0  0.64929  0.40774  0.01297  1.0000
  I   I127      1.0  0.79433  0.52408  0.15866  1.0000
  I   I128      1.0  0.75290  0.51974  0.44029  1.0000
  I   I129      1.0  0.82344  0.47744  0.89667  1.0000
  I   I130      1.0  0.79123  0.68732  0.68866  1.0000
  I   I131      1.0  0.78558  0.73996  0.02328  1.0000
  I   I132      1.0  0.63915  0.74295  0.30929  1.0000
  I   I133      1.0  0.83907  0.21918  0.49541  1.0000
  I   I134      1.0  0.79376  0.22054  0.04043  1.0000
  I   I135      1.0  0.93948  0.16408  0.21060  1.0000
  I   I136      1.0  0.10038  0.01757  0.51709  1.0000
  I   I137      1.0  0.94698  0.39968  0.25051  1.0000
  I   I138      1.0  0.94477  0.24654  0.32565  1.0000
  I   I139      1.0  0.10891  0.55879  0.88806  1.0000
  I   I140      1.0  0.07943  0.49965  0.32036  1.0000
  I   I141      1.0  0.07616  0.53649  0.61423  1.0000
  I   I142      1.0  0.58720  0.09240  0.08624  1.0000
  I   I143      1.0  0.71854  0.03405  0.50892  1.0000
  I   I144      1.0  0.62935  0.06653  0.76262  1.0000
  I   I145      1.0  0.34949  0.93481  0.39696  1.0000
  I   I146      1.0  0.10879  0.01144  0.03033  1.0000
  I   I147      1.0  0.32905  0.96057  0.03830  1.0000
  I   I148      1.0  0.16453  0.23351  0.43320  1.0000
  I   I149      1.0  0.10584  0.38701  0.77703  1.0000
  I   I150      1.0  0.21104  0.22705  0.90812  1.0000
  I   I151      1.0  0.90747  0.75854  0.20481  1.0000
  I   I152      1.0  0.87737  0.86851  0.58052  1.0000
  I   I153      1.0  0.84513  0.92233  0.14046  1.0000
  I   I154      1.0  0.01676  0.90254  0.08314  1.0000
  I   I155      1.0  0.20341  0.77847  0.75245  1.0000
  I   I156      1.0  0.11396  0.69666  0.67274  1.0000
  I   I157      1.0  0.40818  0.09846  0.34667  1.0000
  I   I158      1.0  0.29641  0.14622  0.81405  1.0000
  I   I159      1.0  0.34284  0.09743  0.04581  1.0000
  I   I160      1.0  0.23438  0.49249  0.68306  1.0000
  I   I161      1.0  0.26658  0.60802  0.08765  1.0000
  I   I162      1.0  0.31366  0.49591  0.80272  1.0000
  I   I163      1.0  0.42141  0.73238  0.23330  1.0000
  I   I164      1.0  0.67257  0.61259  0.71195  1.0000
  I   I165      1.0  0.39174  0.68990  0.53008  1.0000
  I   I166      1.0  0.32736  0.88807  0.61686  1.0000
  I   I167      1.0  0.56430  0.84241  0.71344  1.0000
  I   I168      1.0  0.46221  0.72225  0.63459  1.0000
  I   I169      1.0  0.58208  0.19186  0.65310  1.0000
  I   I170      1.0  0.47495  0.27433  0.91111  1.0000
  I   I171      1.0  0.53157  0.20637  0.32561  1.0000
  I   I172      1.0  0.53499  0.52182  0.80903  1.0000
  I   I173      1.0  0.71773  0.31934  0.02384  1.0000
  I   I174      1.0  0.56249  0.40041  0.99821  1.0000
  I   I175      1.0  0.74262  0.60077  0.26725  1.0000
  I   I176      1.0  0.87327  0.48543  0.70007  1.0000
  I   I177      1.0  0.77356  0.57843  0.95149  1.0000
  I   I178      1.0  0.77990  0.69411  0.87402  1.0000
  I   I179      1.0  0.61303  0.81072  0.24596  1.0000
  I   I180      1.0  0.71295  0.69628  0.64259  1.0000
  I   I181      1.0  0.72078  0.17070  0.97637  1.0000
  I   I182      1.0  0.86630  0.13106  0.06919  1.0000
  I   I183      1.0  0.78146  0.15747  0.54848  1.0000
  I   I184      1.0  0.88151  0.37902  0.27240  1.0000
  I   I185      1.0  0.99693  0.23263  0.46879  1.0000
  I   I186      1.0  0.11068  0.96694  0.36889  1.0000
  I   I187      1.0  0.03957  0.49418  0.16845  1.0000
  I   I188      1.0  0.09974  0.44001  0.46878  1.0000
  I   I189      1.0  0.08375  0.48019  0.77883  1.0000
  I   I190      1.0  0.79431  0.94987  0.36346  1.0000
  I   I191      1.0  0.73141  0.99329  0.64078  1.0000
  I   I192      1.0  0.66896  0.02667  0.91514  1.0000
  I   I193      1.0  0.42548  0.89353  0.40221  1.0000
  I   I194      1.0  0.13717  0.06150  0.93070  1.0000
  I   I195      1.0  0.33816  0.00344  0.16033  1.0000
  I   I196      1.0  0.17235  0.18028  0.56814  1.0000
  I   I197      1.0  0.06276  0.39858  0.92298  1.0000
  I   I198      1.0  0.22323  0.22673  0.06799  1.0000
  I   I199      1.0  0.90755  0.67203  0.24197  1.0000
  I   I200      1.0  0.95472  0.92035  0.65949  1.0000
  I   I201      1.0  0.78215  0.90371  0.09149  1.0000
  I   I202      1.0  0.00277  0.88317  0.24225  1.0000
  I   I203      1.0  0.14816  0.85141  0.64969  1.0000
  I   I204      1.0  0.07170  0.66623  0.56302  1.0000
  I   I205      1.0  0.44161  0.16655  0.31575  1.0000
  I   I206      1.0  0.30451  0.06408  0.76477  1.0000
  I   I207      1.0  0.39944  0.12725  0.99758  1.0000
  I   I208      1.0  0.29528  0.66607  0.81864  1.0000
  I   I209      1.0  0.17238  0.67009  0.10239  1.0000
  I   I210      1.0  0.30295  0.42521  0.77116  1.0000
  I   I211      1.0  0.44032  0.75483  0.08818  1.0000
  I   I212      1.0  0.73519  0.55682  0.62760  1.0000
  I   I213      1.0  0.37711  0.62830  0.42943  1.0000
  I   I214      1.0  0.26566  0.87796  0.74484  1.0000
  I   I215      1.0  0.53888  0.80574  0.85163  1.0000
  I   I216      1.0  0.44105  0.76127  0.48718  1.0000
  I   I217      1.0  0.54153  0.27108  0.62426  1.0000
  I   I218      1.0  0.40861  0.35518  0.89709  1.0000
  I   I219      1.0  0.45386  0.26304  0.43354  1.0000
  I   I220      1.0  0.56144  0.33866  0.34705  1.0000
  I   I221      1.0  0.71983  0.32097  0.87153  1.0000
  I   I222      1.0  0.56377  0.44958  0.09918  1.0000
  I   I223      1.0  0.71534  0.53241  0.28428  1.0000
  I   I224      1.0  0.89559  0.41656  0.79532  1.0000
  I   I225      1.0  0.75820  0.51585  0.02548  1.0000
  I   I226      1.0  0.74310  0.82216  0.94101  1.0000
  I   I227      1.0  0.56756  0.82772  0.37259  1.0000
  I   I228      1.0  0.82094  0.67550  0.54797  1.0000
  I   I229      1.0  0.74471  0.24010  0.92246  1.0000
  I   I230      1.0  0.92796  0.15390  0.03522  1.0000
  I   I231      1.0  0.81025  0.17074  0.40894  1.0000
  I   I232      1.0  0.87688  0.44249  0.16016  1.0000
  I   I233      1.0  0.90795  0.28151  0.60492  1.0000
  I   I234      1.0  0.04625  0.05806  0.39266  1.0000
  I   I235      1.0  0.13734  0.43418  0.19902  1.0000
  I   I236      1.0  0.12404  0.51121  0.48681  1.0000
  I   I237      1.0  0.11888  0.53988  0.74152  1.0000
  I   I238      1.0  0.70803  0.00422  0.34122  1.0000
  I   I239      1.0  0.68022  0.08843  0.65094  1.0000
  I   I240      1.0  0.62363  0.10453  0.95937  1.0000
  I   I241      1.0  0.39664  0.93442  0.53249  1.0000
  I   I242      1.0  0.18797  0.98878  0.04375  1.0000
  I   I243      1.0  0.36757  0.90195  0.15257  1.0000
  I   I244      1.0  0.15771  0.15088  0.43291  1.0000
  I   I245      1.0  0.15155  0.34712  0.91862  1.0000
  I   I246      1.0  0.23364  0.14895  0.97281  1.0000
  I   I247      1.0  0.97844  0.68861  0.25354  1.0000
  I   I248      1.0  0.93031  0.85613  0.71540  1.0000
  I   I249      1.0  0.82846  0.87569  0.23164  1.0000
  I   I250      1.0  0.06700  0.89190  0.19619  1.0000
  I   I251      1.0  0.12668  0.85708  0.79808  1.0000
  I   I252      1.0  0.99613  0.72931  0.63774  1.0000
  I   I253      1.0  0.44519  0.13201  0.45939  1.0000
  I   I254      1.0  0.37695  0.02479  0.88304  1.0000
  I   I255      1.0  0.42143  0.05116  0.06080  1.0000
  I   I256      1.0  0.29510  0.59760  0.77031  1.0000
  I   I257      1.0  0.21881  0.64183  0.23975  1.0000
  I   I258      1.0  0.38980  0.42934  0.74104  1.0000
  I   I259      1.0  0.37193  0.75425  0.02346  1.0000
  I   I260      1.0  0.61206  0.56496  0.53280  1.0000
  I   I261      1.0  0.43647  0.65403  0.36717  1.0000
  I   I262      1.0  0.26788  0.95524  0.69769  1.0000
  I   I263      1.0  0.47752  0.87940  0.80001  1.0000
  I   I264      1.0  0.50290  0.76533  0.58797  1.0000
  I   I265      1.0  0.55028  0.25856  0.78265  1.0000
  I   I266      1.0  0.44916  0.31928  0.05407  1.0000
  I   I267      1.0  0.51857  0.28246  0.35643  1.0000
  I   I268      1.0  0.57775  0.40511  0.40651  1.0000
  I   I269      1.0  0.72956  0.38699  0.96769  1.0000
  I   I270      1.0  0.48173  0.45472  0.04251  1.0000
  I   I271      1.0  0.68518  0.59934  0.39437  1.0000
  I   I272      1.0  0.80192  0.46159  0.74753  1.0000
  I   I273      1.0  0.72149  0.59581  0.07732  1.0000
  I   I274      1.0  0.82746  0.74468  0.88392  1.0000
  I   I275      1.0  0.52790  0.82984  0.23342  1.0000
  I   I276      1.0  0.78304  0.62169  0.59937  1.0000
  I   I277      1.0  0.79599  0.15131  0.93885  1.0000
  I   I278      1.0  0.94694  0.09312  0.14866  1.0000
  I   I279      1.0  0.87465  0.12843  0.48191  1.0000
  I   I280      1.0  0.95781  0.31347  0.17817  1.0000
  I   I281      1.0  0.91881  0.22594  0.47068  1.0000
  I   I282      1.0  0.13043  0.04857  0.34452  1.0000
  I   I283      1.0  0.07423  0.41137  0.19638  1.0000
  I   I284      1.0  0.14104  0.45381  0.60940  1.0000
  I   I285      1.0  0.14843  0.47511  0.87424  1.0000
  I   I286      1.0  0.77071  0.03324  0.40309  1.0000
  I   I287      1.0  0.71730  0.05128  0.79721  1.0000
  I   I288      1.0  0.67106  0.03969  0.07304  1.0000
  I   I289      1.0  0.34207  0.01996  0.43093  1.0000
  I   I290      1.0  0.02536  0.08027  0.02226  1.0000
  I   I291      1.0  0.20065  0.97203  0.21138  1.0000
  I   I292      1.0  0.08924  0.27768  0.24136  1.0000
  I   I293      1.0  0.05154  0.38880  0.64117  1.0000
  I   I294      1.0  0.18318  0.20699  0.77468  1.0000
  I   I295      1.0  0.98252  0.73198  0.12967  1.0000
  I   I296      1.0  0.96519  0.93431  0.48057  1.0000
  I   I297      1.0  0.76235  0.99434  0.05653  1.0000
  I   I298      1.0  0.02040  0.97296  0.14260  1.0000
  I   I299      1.0  0.18289  0.74793  0.16092  1.0000
  I   I300      1.0  0.06406  0.76056  0.58318  1.0000
  I   I301      1.0  0.31394  0.15086  0.28776  1.0000
  I   I302      1.0  0.31529  0.24306  0.53190  1.0000
  I   I303      1.0  0.26532  0.13542  0.67138  1.0000
  I   I304      1.0  0.25454  0.44890  0.55327  1.0000
  I   I305      1.0  0.28826  0.53515  0.00802  1.0000
  I   I306      1.0  0.16978  0.63532  0.35426  1.0000
  I   I307      1.0  0.37157  0.80723  0.28109  1.0000
  I   I308      1.0  0.69544  0.52483  0.56179  1.0000
  I   I309      1.0  0.30840  0.66281  0.58463  1.0000
  I   I310      1.0  0.38513  0.89066  0.71014  1.0000
  I   I311      1.0  0.60186  0.91710  0.75106  1.0000
  I   I312      1.0  0.43503  0.89082  0.95201  1.0000
  I   I313      1.0  0.55980  0.12343  0.60541  1.0000
  I   I314      1.0  0.47773  0.19124  0.90679  1.0000
  I   I315      1.0  0.44968  0.25751  0.17343  1.0000
  I   I316      1.0  0.53778  0.56304  0.92806  1.0000
  I   I317      1.0  0.50287  0.42011  0.41825  1.0000
  I   I318      1.0  0.57612  0.39540  0.82986  1.0000
  I   I319      1.0  0.81738  0.60838  0.27453  1.0000
  I   I320      1.0  0.83070  0.51113  0.53502  1.0000
  I   I321      1.0  0.85491  0.56490  0.89824  1.0000
  I   I322      1.0  0.70793  0.76976  0.93846  1.0000
  I   I323      1.0  0.67385  0.72356  0.13207  1.0000
  I   I324      1.0  0.81783  0.75694  0.45956  1.0000
  I   I325      1.0  0.63404  0.24168  0.13427  1.0000
  I   I326      1.0  0.86842  0.14567  0.21950  1.0000
  I   I327      1.0  0.71390  0.22316  0.42285  1.0000
  I   I328      1.0  0.93382  0.26651  0.12430  1.0000
  I   I329      1.0  0.93994  0.31482  0.48181  1.0000
  I   I330      1.0  0.23086  0.89450  0.42976  1.0000
  I   I331      1.0  0.12996  0.44614  0.99952  1.0000
  I   I332      1.0  0.01563  0.46179  0.45668  1.0000
  I   I333      1.0  0.00114  0.50091  0.74328  1.0000
  I   I334      1.0  0.63474  0.08309  0.22996  1.0000
  I   I335      1.0  0.70929  0.93842  0.61036  1.0000
  I   I336      1.0  0.65190  0.96428  0.88458  1.0000
  I   I337      1.0  0.31043  0.05595  0.29438  1.0000
  I   I338      1.0  0.03843  0.11535  0.87386  1.0000
  I   I339      1.0  0.20356  0.04588  0.22293  1.0000
  I   I340      1.0  0.08576  0.32911  0.35060  1.0000
  I   I341      1.0  0.14224  0.33316  0.64824  1.0000
  I   I342      1.0  0.10058  0.25819  0.82256  1.0000
  I   I343      1.0  0.92732  0.79259  0.00010  1.0000
  I   I344      1.0  0.88030  0.93649  0.50561  1.0000
  I   I345      1.0  0.85333  0.95400  0.99664  1.0000
  I   I346      1.0  0.94692  0.98177  0.20136  1.0000
  I   I347      1.0  0.14384  0.81141  0.27767  1.0000
  I   I348      1.0  0.05760  0.82420  0.67880  1.0000
  I   I349      1.0  0.34464  0.16558  0.13637  1.0000
  I   I350      1.0  0.27579  0.23480  0.37817  1.0000
  I   I351      1.0  0.35611  0.06182  0.66217  1.0000
  I   I352      1.0  0.29718  0.49401  0.63705  1.0000
  I   I353      1.0  0.24184  0.59121  0.87461  1.0000
  I   I354      1.0  0.26805  0.57418  0.35463  1.0000
  I   I355      1.0  0.31004  0.78798  0.32102  1.0000
  I   I356      1.0  0.65837  0.61638  0.56300  1.0000
  I   I357      1.0  0.36276  0.68187  0.65951  1.0000
  I   I358      1.0  0.43259  0.80121  0.72457  1.0000
  I   I359      1.0  0.64864  0.83872  0.69010  1.0000
  I   I360      1.0  0.50306  0.82163  0.02444  1.0000
  I   I361      1.0  0.51944  0.17805  0.47367  1.0000
  I   I362      1.0  0.42967  0.22838  0.76144  1.0000
  I   I363      1.0  0.35538  0.28688  0.14509  1.0000
  I   I364      1.0  0.45712  0.57863  0.84242  1.0000
  I   I365      1.0  0.48000  0.51299  0.46326  1.0000
  I   I366      1.0  0.64814  0.40788  0.86292  1.0000
  I   I367      1.0  0.86234  0.53158  0.23403  1.0000
  I   I368      1.0  0.86861  0.52757  0.40573  1.0000
  I   I369      1.0  0.88677  0.48292  0.87292  1.0000
  I   I370      1.0  0.67815  0.76620  0.75911  1.0000
  I   I371      1.0  0.61962  0.69896  0.21701  1.0000
  I   I372      1.0  0.80548  0.68210  0.38429  1.0000
  I   I373      1.0  0.64392  0.17997  0.01304  1.0000
  I   I374      1.0  0.78518  0.21098  0.23667  1.0000
  I   I375      1.0  0.76456  0.23271  0.57510  1.0000
  I   I376      1.0  0.93126  0.31953  0.96810  1.0000
  I   I377      1.0  0.97049  0.30079  0.64095  1.0000
  I   I378      1.0  0.14826  0.91906  0.51608  1.0000
  I   I379      1.0  0.09600  0.53174  0.07258  1.0000
  I   I380      1.0  0.00253  0.50687  0.33517  1.0000
  I   I381      1.0  0.99320  0.57571  0.66393  1.0000
  I   I382      1.0  0.67460  0.99022  0.20111  1.0000
  I   I383      1.0  0.65606  0.99439  0.47027  1.0000
  I   I384      1.0  0.59908  0.01607  0.75321  1.0000
