data_image0
_chemical_formula_structural       Ti96I384
_chemical_formula_sum              "Ti96 I384"
_cell_length_a       55.3459
_cell_length_b       55.5595
_cell_length_c       26.8333
_cell_angle_alpha    88.7757
_cell_angle_beta     88.7757
_cell_angle_gamma    62.1586

_space_group_name_H-M_alt    "P 1"
_space_group_IT_number       1

loop_
  _space_group_symop_operation_xyz
  'x, y, z'

loop_
  _atom_site_type_symbol
  _atom_site_label
  _atom_site_symmetry_multiplicity
  _atom_site_fract_x
  _atom_site_fract_y
  _atom_site_fract_z
  _atom_site_occupancy
  Ti  Ti1       1.0  0.83729  0.58654  0.15395  1.0000
  Ti  Ti2       1.0  0.90531  0.99831  0.11421  1.0000
  Ti  Ti3       1.0  0.74895  0.72323  0.26794  1.0000
  Ti  Ti4       1.0  0.32336  0.14441  0.65805  1.0000
  Ti  Ti5       1.0  0.93480  0.29049  0.19109  1.0000
  Ti  Ti6       1.0  0.07508  0.32970  0.77911  1.0000
  Ti  Ti7       1.0  0.94077  0.91321  0.31955  1.0000
  Ti  Ti8       1.0  0.94431  0.11085  0.64820  1.0000
  Ti  Ti9       1.0  0.86278  0.90399  0.75941  1.0000
  Ti  Ti10      1.0  0.39005  0.89115  0.11194  1.0000
  Ti  Ti11      1.0  0.11183  0.56878  0.95407  1.0000
  Ti  Ti12      1.0  0.87483  0.71956  0.56126  1.0000
  Ti  Ti13      1.0  0.36451  0.31663  0.49585  1.0000
  Ti  Ti14      1.0  0.31035  0.23614  0.27594  1.0000
  Ti  Ti15      1.0  0.26477  0.08889  0.00269  1.0000
  Ti  Ti16      1.0  0.23974  0.60939  0.11230  1.0000
  Ti  Ti17      1.0  0.22597  0.75638  0.10406  1.0000
  Ti  Ti18      1.0  0.18741  0.40399  0.00201  1.0000
  Ti  Ti19      1.0  0.65492  0.68385  0.54224  1.0000
  Ti  Ti20      1.0  0.75066  0.81047  0.92459  1.0000
  Ti  Ti21      1.0  0.32821  0.44888  0.26021  1.0000
  Ti  Ti22      1.0  0.51605  0.99285  0.49767  1.0000
  Ti  Ti23      1.0  0.66929  0.94328  0.71734  1.0000
  Ti  Ti24      1.0  0.48078  0.88004  0.60506  1.0000
  Ti  Ti25      1.0  0.33364  0.23788  0.94868  1.0000
  Ti  Ti26      1.0  0.22503  0.32493  0.75028  1.0000
  Ti  Ti27      1.0  0.30695  0.52928  0.66946  1.0000
  Ti  Ti28      1.0  0.50745  0.61642  0.68264  1.0000
  Ti  Ti29      1.0  0.68760  0.43406  0.65922  1.0000
  Ti  Ti30      1.0  0.81614  0.44421  0.65415  1.0000
  Ti  Ti31      1.0  0.64203  0.43264  0.07800  1.0000
  Ti  Ti32      1.0  0.80561  0.26887  0.55100  1.0000
  Ti  Ti33      1.0  0.95362  0.38729  0.03530  1.0000
  Ti  Ti34      1.0  0.04044  0.77493  0.12641  1.0000
  Ti  Ti35      1.0  0.67730  0.65778  0.85707  1.0000
  Ti  Ti36      1.0  0.99432  0.55555  0.87498  1.0000
  Ti  Ti37      1.0  0.59630  0.30646  0.13704  1.0000
  Ti  Ti38      1.0  0.49316  0.35721  0.33815  1.0000
  Ti  Ti39      1.0  0.44516  0.50033  0.10476  1.0000
  Ti  Ti40      1.0  0.17091  0.99879  0.49482  1.0000
  Ti  Ti41      1.0  0.63233  0.28693  0.72829  1.0000
  Ti  Ti42      1.0  0.42695  0.77798  0.76433  1.0000
  Ti  Ti43      1.0  0.78508  0.22225  0.81058  1.0000
  Ti  Ti44      1.0  0.88822  0.45090  0.35427  1.0000
  Ti  Ti45      1.0  0.03083  0.46795  0.33928  1.0000
  Ti  Ti46      1.0  0.63820  0.13831  0.40610  1.0000
  Ti  Ti47      1.0  0.54261  0.06874  0.18767  1.0000
  Ti  Ti48      1.0  0.41054  0.30431  0.82110  1.0000
  Ti  Ti49      1.0  0.78370  0.64915  0.22999  1.0000
  Ti  Ti50      1.0  0.83323  0.01995  0.04301  1.0000
  Ti  Ti51      1.0  0.90086  0.05949  0.22842  1.0000
  Ti  Ti52      1.0  0.33259  0.10336  0.55009  1.0000
  Ti  Ti53      1.0  0.93300  0.23196  0.18922  1.0000
  Ti  Ti54      1.0  0.05182  0.27771  0.82799  1.0000
  Ti  Ti55      1.0  0.98866  0.90886  0.41593  1.0000
  Ti  Ti56      1.0  0.95569  0.05625  0.68535  1.0000
  Ti  Ti57      1.0  0.82337  0.96140  0.84076  1.0000
  Ti  Ti58      1.0  0.33971  0.83282  0.12287  1.0000
  Ti  Ti59      1.0  0.46034  0.84400  0.12126  1.0000
  Ti  Ti60      1.0  0.87775  0.72388  0.44885  1.0000
  Ti  Ti61      1.0  0.28583  0.05751  0.12181  1.0000
  Ti  Ti62      1.0  0.42565  0.28397  0.47619  1.0000
  Ti  Ti63      1.0  0.35652  0.18602  0.20610  1.0000
  Ti  Ti64      1.0  0.23549  0.34572  0.06841  1.0000
  Ti  Ti65      1.0  0.23368  0.67058  0.04793  1.0000
  Ti  Ti66      1.0  0.19361  0.80707  0.60239  1.0000
  Ti  Ti67      1.0  0.59614  0.73029  0.62905  1.0000
  Ti  Ti68      1.0  0.82608  0.76848  0.95562  1.0000
  Ti  Ti69      1.0  0.35131  0.40406  0.12432  1.0000
  Ti  Ti70      1.0  0.49315  0.94705  0.57056  1.0000
  Ti  Ti71      1.0  0.71003  0.92281  0.58913  1.0000
  Ti  Ti72      1.0  0.63287  0.00852  0.82746  1.0000
  Ti  Ti73      1.0  0.36397  0.45498  0.68481  1.0000
  Ti  Ti74      1.0  0.27280  0.24982  0.83517  1.0000
  Ti  Ti75      1.0  0.15809  0.36958  0.69131  1.0000
  Ti  Ti76      1.0  0.89158  0.43648  0.72469  1.0000
  Ti  Ti77      1.0  0.53781  0.56270  0.74418  1.0000
  Ti  Ti78      1.0  0.76566  0.40515  0.71614  1.0000
  Ti  Ti79      1.0  0.88352  0.43979  0.03473  1.0000
  Ti  Ti80      1.0  0.71410  0.40754  0.13531  1.0000
  Ti  Ti81      1.0  0.84495  0.28224  0.43977  1.0000
  Ti  Ti82      1.0  0.99816  0.72201  0.12522  1.0000
  Ti  Ti83      1.0  0.71267  0.60926  0.94361  1.0000
  Ti  Ti84      1.0  0.95850  0.62614  0.90290  1.0000
  Ti  Ti85      1.0  0.67227  0.26014  0.13239  1.0000
  Ti  Ti86      1.0  0.47482  0.32490  0.19582  1.0000
  Ti  Ti87      1.0  0.43028  0.55366  0.17717  1.0000
  Ti  Ti88      1.0  0.21275  0.94473  0.55231  1.0000
  Ti  Ti89      1.0  0.64280  0.21992  0.67208  1.0000
  Ti  Ti90      1.0  0.40534  0.73589  0.84220  1.0000
  Ti  Ti91      1.0  0.05275  0.50989  0.42321  1.0000
  Ti  Ti92      1.0  0.76274  0.24029  0.93135  1.0000
  Ti  Ti93      1.0  0.96221  0.45344  0.31316  1.0000
  Ti  Ti94      1.0  0.48560  0.31610  0.85977  1.0000
  Ti  Ti95      1.0  0.64766  0.10700  0.50442  1.0000
  Ti  Ti96      1.0  0.50769  0.07932  0.07147  1.0000
  I   I1        1.0  0.80731  0.06283  0.98095  1.0000
  I   I2        1.0  0.93313  0.02612  0.08982  1.0000
  I   I3        1.0  0.78795  0.59281  0.22364  1.0000
  I   I4        1.0  0.89739  0.27918  0.13885  1.0000
  I   I5        1.0  0.06179  0.24805  0.90473  1.0000
  I   I6        1.0  0.04694  0.30199  0.72917  1.0000
  I   I7        1.0  0.98565  0.01603  0.74059  1.0000
  I   I8        1.0  0.92254  0.11359  0.56593  1.0000
  I   I9        1.0  0.80908  0.91808  0.81309  1.0000
  I   I10       1.0  0.35811  0.91804  0.03695  1.0000
  I   I11       1.0  0.07947  0.61423  0.91581  1.0000
  I   I12       1.0  0.39008  0.78918  0.15719  1.0000
  I   I13       1.0  0.37971  0.28716  0.39806  1.0000
  I   I14       1.0  0.39296  0.19414  0.15190  1.0000
  I   I15       1.0  0.31745  0.04094  0.03128  1.0000
  I   I16       1.0  0.28171  0.61811  0.06023  1.0000
  I   I17       1.0  0.18479  0.80114  0.69352  1.0000
  I   I18       1.0  0.28879  0.31236  0.05868  1.0000
  I   I19       1.0  0.85154  0.71993  0.00016  1.0000
  I   I20       1.0  0.31988  0.40697  0.21722  1.0000
  I   I21       1.0  0.37895  0.40063  0.04315  1.0000
  I   I22       1.0  0.71177  0.95357  0.51523  1.0000
  I   I23       1.0  0.70532  0.96385  0.67268  1.0000
  I   I24       1.0  0.50818  0.91335  0.64674  1.0000
  I   I25       1.0  0.28088  0.23805  0.94117  1.0000
  I   I26       1.0  0.17923  0.31871  0.72128  1.0000
  I   I27       1.0  0.36100  0.50876  0.65980  1.0000
  I   I28       1.0  0.51439  0.62459  0.77937  1.0000
  I   I29       1.0  0.75862  0.37111  0.65517  1.0000
  I   I30       1.0  0.87220  0.40084  0.70429  1.0000
  I   I31       1.0  0.63420  0.40369  0.14377  1.0000
  I   I32       1.0  0.79217  0.31747  0.49239  1.0000
  I   I33       1.0  0.95516  0.42283  0.96882  1.0000
  I   I34       1.0  0.69087  0.69198  0.90956  1.0000
  I   I35       1.0  0.96402  0.58961  0.79756  1.0000
  I   I36       1.0  0.02671  0.66814  0.11450  1.0000
  I   I37       1.0  0.56181  0.32625  0.21616  1.0000
  I   I38       1.0  0.38769  0.60193  0.20773  1.0000
  I   I39       1.0  0.70683  0.24569  0.21017  1.0000
  I   I40       1.0  0.64724  0.25713  0.60714  1.0000
  I   I41       1.0  0.44243  0.70992  0.90661  1.0000
  I   I42       1.0  0.18083  0.99485  0.59934  1.0000
  I   I43       1.0  0.82903  0.20709  0.75456  1.0000
  I   I44       1.0  0.91465  0.45821  0.26933  1.0000
  I   I45       1.0  0.05096  0.44282  0.25568  1.0000
  I   I46       1.0  0.59945  0.14220  0.33918  1.0000
  I   I47       1.0  0.58659  0.02590  0.16257  1.0000
  I   I48       1.0  0.45501  0.28495  0.88624  1.0000
  I   I49       1.0  0.81687  0.57802  0.07150  1.0000
  I   I50       1.0  0.94070  0.95537  0.07438  1.0000
  I   I51       1.0  0.87748  0.10983  0.22899  1.0000
  I   I52       1.0  0.29509  0.09535  0.50403  1.0000
  I   I53       1.0  0.92784  0.26897  0.27347  1.0000
  I   I54       1.0  0.10507  0.26784  0.82549  1.0000
  I   I55       1.0  0.93420  0.88255  0.39233  1.0000
  I   I56       1.0  0.90333  0.09007  0.69625  1.0000
  I   I57       1.0  0.90305  0.91273  0.76119  1.0000
  I   I58       1.0  0.43718  0.89579  0.08519  1.0000
  I   I59       1.0  0.49060  0.82147  0.03565  1.0000
  I   I60       1.0  0.82664  0.75352  0.51432  1.0000
  I   I61       1.0  0.40507  0.25206  0.51870  1.0000
  I   I62       1.0  0.45346  0.27769  0.55239  1.0000
  I   I63       1.0  0.31606  0.18639  0.31560  1.0000
  I   I64       1.0  0.20159  0.61209  0.17137  1.0000
  I   I65       1.0  0.20090  0.72517  0.04318  1.0000
  I   I66       1.0  0.18285  0.77826  0.54287  1.0000
  I   I67       1.0  0.54729  0.74154  0.63409  1.0000
  I   I68       1.0  0.70150  0.82976  0.96027  1.0000
  I   I69       1.0  0.28227  0.45991  0.31939  1.0000
  I   I70       1.0  0.47198  0.98134  0.47938  1.0000
  I   I71       1.0  0.71047  0.89670  0.71705  1.0000
  I   I72       1.0  0.65089  0.00040  0.91753  1.0000
  I   I73       1.0  0.28041  0.56070  0.59051  1.0000
  I   I74       1.0  0.26294  0.27607  0.72502  1.0000
  I   I75       1.0  0.14546  0.36118  0.60418  1.0000
  I   I76       1.0  0.50708  0.57839  0.61417  1.0000
  I   I77       1.0  0.48229  0.58406  0.73969  1.0000
  I   I78       1.0  0.77528  0.45074  0.72881  1.0000
  I   I79       1.0  0.88099  0.48682  0.02140  1.0000
  I   I80       1.0  0.72645  0.41166  0.23176  1.0000
  I   I81       1.0  0.83382  0.21881  0.53606  1.0000
  I   I82       1.0  0.02434  0.81238  0.19698  1.0000
  I   I83       1.0  0.62543  0.69293  0.86446  1.0000
  I   I84       1.0  0.98596  0.63972  0.83004  1.0000
  I   I85       1.0  0.62870  0.25818  0.19204  1.0000
  I   I86       1.0  0.42904  0.32934  0.16154  1.0000
  I   I87       1.0  0.39707  0.54877  0.10568  1.0000
  I   I88       1.0  0.11572  0.02297  0.49424  1.0000
  I   I89       1.0  0.64606  0.28192  0.82391  1.0000
  I   I90       1.0  0.46859  0.73150  0.74775  1.0000
  I   I91       1.0  0.03303  0.56580  0.42622  1.0000
  I   I92       1.0  0.81568  0.21480  0.90060  1.0000
  I   I93       1.0  0.01600  0.43267  0.36821  1.0000
  I   I94       1.0  0.48409  0.34357  0.77447  1.0000
  I   I95       1.0  0.68175  0.05333  0.53184  1.0000
  I   I96       1.0  0.45709  0.10105  0.03593  1.0000
  I   I97       1.0  0.75304  0.75247  0.34072  1.0000
  I   I98       1.0  0.88035  0.56768  0.09363  1.0000
  I   I99       1.0  0.92595  0.99196  0.21222  1.0000
  I   I100      1.0  0.36984  0.09304  0.47581  1.0000
  I   I101      1.0  0.27967  0.18688  0.67704  1.0000
  I   I102      1.0  0.95794  0.28797  0.10568  1.0000
  I   I103      1.0  0.03772  0.89959  0.38526  1.0000
  I   I104      1.0  0.88893  0.95418  0.32744  1.0000
  I   I105      1.0  0.78453  0.98690  0.90508  1.0000
  I   I106      1.0  0.87893  0.69267  0.64772  1.0000
  I   I107      1.0  0.42138  0.86247  0.19645  1.0000
  I   I108      1.0  0.88063  0.77092  0.46080  1.0000
  I   I109      1.0  0.30438  0.01567  0.17970  1.0000
  I   I110      1.0  0.37805  0.33230  0.57403  1.0000
  I   I111      1.0  0.31081  0.26213  0.35527  1.0000
  I   I112      1.0  0.17628  0.37860  0.09042  1.0000
  I   I113      1.0  0.19609  0.65676  0.03402  1.0000
  I   I114      1.0  0.21586  0.76522  0.19604  1.0000
  I   I115      1.0  0.60184  0.70954  0.51856  1.0000
  I   I116      1.0  0.60333  0.73705  0.72184  1.0000
  I   I117      1.0  0.85526  0.75645  0.87327  1.0000
  I   I118      1.0  0.54768  0.93554  0.52010  1.0000
  I   I119      1.0  0.52902  0.99023  0.40416  1.0000
  I   I120      1.0  0.67941  0.96938  0.79921  1.0000
  I   I121      1.0  0.26279  0.56642  0.72774  1.0000
  I   I122      1.0  0.31226  0.27263  0.85482  1.0000
  I   I123      1.0  0.21238  0.34577  0.64350  1.0000
  I   I124      1.0  0.83426  0.46845  0.72938  1.0000
  I   I125      1.0  0.54262  0.51662  0.72140  1.0000
  I   I126      1.0  0.72997  0.44603  0.63600  1.0000
  I   I127      1.0  0.91438  0.37567  0.08563  1.0000
  I   I128      1.0  0.76278  0.39035  0.11155  1.0000
  I   I129      1.0  0.86169  0.27479  0.53842  1.0000
  I   I130      1.0  0.04150  0.53954  0.83031  1.0000
  I   I131      1.0  0.03454  0.73283  0.06402  1.0000
  I   I132      1.0  0.74207  0.60609  0.01836  1.0000
  I   I133      1.0  0.43536  0.50029  0.20826  1.0000
  I   I134      1.0  0.48812  0.33900  0.11085  1.0000
  I   I135      1.0  0.51266  0.39293  0.32201  1.0000
  I   I136      1.0  0.44697  0.80489  0.80360  1.0000
  I   I137      1.0  0.16245  0.94713  0.55389  1.0000
  I   I138      1.0  0.58222  0.32786  0.71836  1.0000
  I   I139      1.0  0.07396  0.44767  0.39759  1.0000
  I   I140      1.0  0.77852  0.27921  0.95268  1.0000
  I   I141      1.0  0.91307  0.48267  0.37275  1.0000
  I   I142      1.0  0.40059  0.33048  0.73794  1.0000
  I   I143      1.0  0.61630  0.16604  0.48615  1.0000
  I   I144      1.0  0.52876  0.10385  0.02175  1.0000
  I   I145      1.0  0.73144  0.67141  0.19537  1.0000
  I   I146      1.0  0.88325  0.01595  0.01783  1.0000
  I   I147      1.0  0.72346  0.76842  0.20644  1.0000
  I   I148      1.0  0.29395  0.11725  0.64838  1.0000
  I   I149      1.0  0.92480  0.20021  0.12934  1.0000
  I   I150      1.0  0.10748  0.34510  0.82833  1.0000
  I   I151      1.0  0.99412  0.86830  0.33216  1.0000
  I   I152      1.0  0.96109  0.15078  0.65499  1.0000
  I   I153      1.0  0.81527  0.98205  0.74702  1.0000
  I   I154      1.0  0.29936  0.87514  0.09155  1.0000
  I   I155      1.0  0.15306  0.57788  0.96709  1.0000
  I   I156      1.0  0.92401  0.69732  0.52322  1.0000
  I   I157      1.0  0.23448  0.08431  0.16671  1.0000
  I   I158      1.0  0.30811  0.21057  0.17344  1.0000
  I   I159      1.0  0.21366  0.13125  0.98967  1.0000
  I   I160      1.0  0.18971  0.44643  0.96089  1.0000
  I   I161      1.0  0.25440  0.66991  0.95653  1.0000
  I   I162      1.0  0.13753  0.42334  0.95664  1.0000
  I   I163      1.0  0.63131  0.67410  0.64303  1.0000
  I   I164      1.0  0.78640  0.75416  0.93707  1.0000
  I   I165      1.0  0.35797  0.42662  0.33530  1.0000
  I   I166      1.0  0.50770  0.98500  0.60357  1.0000
  I   I167      1.0  0.65461  0.94134  0.62147  1.0000
  I   I168      1.0  0.46298  0.85112  0.55177  1.0000
  I   I169      1.0  0.36713  0.25862  0.94567  1.0000
  I   I170      1.0  0.23180  0.30224  0.84772  1.0000
  I   I171      1.0  0.32611  0.49973  0.75991  1.0000
  I   I172      1.0  0.94481  0.40610  0.69470  1.0000
  I   I173      1.0  0.68076  0.40961  0.58034  1.0000
  I   I174      1.0  0.81169  0.39927  0.62630  1.0000
  I   I175      1.0  0.66437  0.45794  0.13503  1.0000
  I   I176      1.0  0.84891  0.32244  0.39334  1.0000
  I   I177      1.0  0.96360  0.34535  0.97778  1.0000
  I   I178      1.0  0.00933  0.75431  0.18540  1.0000
  I   I179      1.0  0.74041  0.61542  0.86430  1.0000
  I   I180      1.0  0.01389  0.57759  0.94714  1.0000
  I   I181      1.0  0.63381  0.31691  0.15620  1.0000
  I   I182      1.0  0.45750  0.37549  0.24739  1.0000
  I   I183      1.0  0.46351  0.50711  0.01816  1.0000
  I   I184      1.0  0.18502  0.03469  0.47394  1.0000
  I   I185      1.0  0.66449  0.30641  0.69575  1.0000
  I   I186      1.0  0.40741  0.69428  0.80053  1.0000
  I   I187      1.0  0.71289  0.25655  0.94236  1.0000
  I   I188      1.0  0.83539  0.48588  0.34196  1.0000
  I   I189      1.0  0.97405  0.49006  0.28195  1.0000
  I   I190      1.0  0.65596  0.08115  0.40633  1.0000
  I   I191      1.0  0.53332  0.06852  0.28483  1.0000
  I   I192      1.0  0.37924  0.31535  0.90096  1.0000
  I   I193      1.0  0.86401  0.53754  0.20526  1.0000
  I   I194      1.0  0.86374  0.98774  0.13180  1.0000
  I   I195      1.0  0.79748  0.68940  0.21649  1.0000
  I   I196      1.0  0.36130  0.16475  0.64678  1.0000
  I   I197      1.0  0.89446  0.33616  0.19521  1.0000
  I   I198      1.0  0.09834  0.31528  0.69637  1.0000
  I   I199      1.0  0.94484  0.89472  0.23140  1.0000
  I   I200      1.0  0.95811  0.02310  0.60589  1.0000
  I   I201      1.0  0.88036  0.85513  0.79390  1.0000
  I   I202      1.0  0.37963  0.85160  0.08201  1.0000
  I   I203      1.0  0.11581  0.55686  0.05363  1.0000
  I   I204      1.0  0.87292  0.68118  0.48660  1.0000
  I   I205      1.0  0.32110  0.31357  0.51424  1.0000
  I   I206      1.0  0.25960  0.26507  0.25505  1.0000
  I   I207      1.0  0.27301  0.07434  0.91136  1.0000
  I   I208      1.0  0.23590  0.57882  0.04380  1.0000
  I   I209      1.0  0.20294  0.79509  0.04035  1.0000
  I   I210      1.0  0.22933  0.40082  0.06131  1.0000
  I   I211      1.0  0.66438  0.70446  0.46296  1.0000
  I   I212      1.0  0.74636  0.79576  0.83719  1.0000
  I   I213      1.0  0.30495  0.45555  0.11577  1.0000
  I   I214      1.0  0.55864  0.99650  0.52825  1.0000
  I   I215      1.0  0.65291  0.91713  0.77767  1.0000
  I   I216      1.0  0.51036  0.84405  0.66707  1.0000
  I   I217      1.0  0.33338  0.23319  0.04611  1.0000
  I   I218      1.0  0.25253  0.35100  0.77467  1.0000
  I   I219      1.0  0.40744  0.43111  0.74161  1.0000
  I   I220      1.0  0.45514  0.65277  0.66781  1.0000
  I   I221      1.0  0.64969  0.42606  0.70282  1.0000
  I   I222      1.0  0.78572  0.49243  0.61846  1.0000
  I   I223      1.0  0.62067  0.42349  0.99586  1.0000
  I   I224      1.0  0.75701  0.27442  0.52865  1.0000
  I   I225      1.0  0.00113  0.37221  0.07453  1.0000
  I   I226      1.0  0.04745  0.79916  0.05340  1.0000
  I   I227      1.0  0.68399  0.67055  0.76751  1.0000
  I   I228      1.0  0.94831  0.58127  0.93802  1.0000
  I   I229      1.0  0.63009  0.27126  0.05910  1.0000
  I   I230      1.0  0.53433  0.32261  0.38934  1.0000
  I   I231      1.0  0.46603  0.54582  0.24599  1.0000
  I   I232      1.0  0.18918  0.95730  0.43204  1.0000
  I   I233      1.0  0.60739  0.22131  0.61126  1.0000
  I   I234      1.0  0.35827  0.75625  0.89425  1.0000
  I   I235      1.0  0.75857  0.21635  0.73211  1.0000
  I   I236      1.0  0.88006  0.41114  0.33377  1.0000
  I   I237      1.0  0.00721  0.50982  0.42112  1.0000
  I   I238      1.0  0.65268  0.15966  0.32666  1.0000
  I   I239      1.0  0.56191  0.10122  0.19784  1.0000
  I   I240      1.0  0.41241  0.26131  0.78826  1.0000
  I   I241      1.0  0.80038  0.64720  0.12732  1.0000
  I   I242      1.0  0.86568  0.05426  0.16297  1.0000
  I   I243      1.0  0.70481  0.72563  0.30053  1.0000
  I   I244      1.0  0.32357  0.15576  0.54539  1.0000
  I   I245      1.0  0.98508  0.21839  0.18172  1.0000
  I   I246      1.0  0.03265  0.37619  0.78813  1.0000
  I   I247      1.0  0.96611  0.94393  0.33013  1.0000
  I   I248      1.0  0.96667  0.08696  0.75304  1.0000
  I   I249      1.0  0.84651  0.89542  0.67663  1.0000
  I   I250      1.0  0.34591  0.91492  0.16868  1.0000
  I   I251      1.0  0.12965  0.52788  0.88764  1.0000
  I   I252      1.0  0.87720  0.75720  0.60996  1.0000
  I   I253      1.0  0.33783  0.36542  0.45442  1.0000
  I   I254      1.0  0.38521  0.17658  0.29314  1.0000
  I   I255      1.0  0.24849  0.05064  0.06050  1.0000
  I   I256      1.0  0.28345  0.57527  0.15914  1.0000
  I   I257      1.0  0.26978  0.76360  0.07936  1.0000
  I   I258      1.0  0.22322  0.30483  0.07996  1.0000
  I   I259      1.0  0.65919  0.71863  0.59836  1.0000
  I   I260      1.0  0.78558  0.81247  0.01112  1.0000
  I   I261      1.0  0.31978  0.49884  0.26790  1.0000
  I   I262      1.0  0.47530  0.04270  0.49014  1.0000
  I   I263      1.0  0.63053  0.00454  0.70654  1.0000
  I   I264      1.0  0.43374  0.90983  0.65442  1.0000
  I   I265      1.0  0.36294  0.18815  0.91893  1.0000
  I   I266      1.0  0.18456  0.37697  0.78238  1.0000
  I   I267      1.0  0.29438  0.49407  0.64043  1.0000
  I   I268      1.0  0.57459  0.57193  0.70286  1.0000
  I   I269      1.0  0.65073  0.48149  0.63128  1.0000
  I   I270      1.0  0.85132  0.44531  0.58613  1.0000
  I   I271      1.0  0.59118  0.47856  0.05888  1.0000
  I   I272      1.0  0.80831  0.26340  0.64504  1.0000
  I   I273      1.0  0.92439  0.42472  0.11481  1.0000
  I   I274      1.0  0.09138  0.75250  0.15267  1.0000
  I   I275      1.0  0.67809  0.60898  0.85501  1.0000
  I   I276      1.0  0.99550  0.50908  0.85082  1.0000
  I   I277      1.0  0.56167  0.34693  0.07823  1.0000
  I   I278      1.0  0.45099  0.39317  0.38835  1.0000
  I   I279      1.0  0.49819  0.47795  0.15386  1.0000
  I   I280      1.0  0.23915  0.89281  0.54759  1.0000
  I   I281      1.0  0.60735  0.24852  0.74381  1.0000
  I   I282      1.0  0.41612  0.80100  0.67747  1.0000
  I   I283      1.0  0.75775  0.27534  0.79759  1.0000
  I   I284      1.0  0.87526  0.44906  0.44750  1.0000
  I   I285      1.0  0.04474  0.51007  0.31078  1.0000
  I   I286      1.0  0.68927  0.12063  0.44788  1.0000
  I   I287      1.0  0.49365  0.11763  0.15374  1.0000
  I   I288      1.0  0.42807  0.34801  0.84666  1.0000
  I   I289      1.0  0.84484  0.61205  0.23801  1.0000
  I   I290      1.0  0.83372  0.97976  0.99670  1.0000
  I   I291      1.0  0.95122  0.04565  0.24766  1.0000
  I   I292      1.0  0.35118  0.11397  0.73290  1.0000
  I   I293      1.0  0.91905  0.20549  0.26682  1.0000
  I   I294      1.0  0.01465  0.26674  0.80192  1.0000
  I   I295      1.0  0.98370  0.94837  0.47463  1.0000
  I   I296      1.0  0.99432  0.07677  0.62328  1.0000
  I   I297      1.0  0.85416  0.98265  0.85617  1.0000
  I   I298      1.0  0.32869  0.82906  0.21463  1.0000
  I   I299      1.0  0.45520  0.79835  0.14065  1.0000
  I   I300      1.0  0.91526  0.68555  0.39033  1.0000
  I   I301      1.0  0.29175  0.11535  0.99069  1.0000
  I   I302      1.0  0.41993  0.33420  0.43772  1.0000
  I   I303      1.0  0.34687  0.24573  0.22242  1.0000
  I   I304      1.0  0.22428  0.35932  0.96382  1.0000
  I   I305      1.0  0.26542  0.69886  0.10067  1.0000
  I   I306      1.0  0.24560  0.79333  0.59837  1.0000
  I   I307      1.0  0.68571  0.63160  0.53307  1.0000
  I   I308      1.0  0.74960  0.85655  0.90097  1.0000
  I   I309      1.0  0.32318  0.38020  0.09474  1.0000
  I   I310      1.0  0.44496  0.97830  0.60962  1.0000
  I   I311      1.0  0.76311  0.91240  0.59359  1.0000
  I   I312      1.0  0.59324  0.99656  0.82851  1.0000
  I   I313      1.0  0.37529  0.44188  0.59544  1.0000
  I   I314      1.0  0.24625  0.22424  0.84645  1.0000
  I   I315      1.0  0.15490  0.41842  0.66489  1.0000
  I   I316      1.0  0.90020  0.42002  0.81410  1.0000
  I   I317      1.0  0.54411  0.54927  0.84184  1.0000
  I   I318      1.0  0.79523  0.37063  0.78166  1.0000
  I   I319      1.0  0.86579  0.42520  0.96273  1.0000
  I   I320      1.0  0.71759  0.36346  0.17146  1.0000
  I   I321      1.0  0.88893  0.24695  0.39637  1.0000
  I   I322      1.0  0.96249  0.71835  0.18245  1.0000
  I   I323      1.0  0.71916  0.55977  0.95360  1.0000
  I   I324      1.0  0.95766  0.65043  0.98374  1.0000
  I   I325      1.0  0.69698  0.20785  0.10002  1.0000
  I   I326      1.0  0.48869  0.30957  0.29828  1.0000
  I   I327      1.0  0.45201  0.57334  0.11173  1.0000
  I   I328      1.0  0.23473  0.93703  0.64589  1.0000
  I   I329      1.0  0.67874  0.22287  0.73768  1.0000
  I   I330      1.0  0.38896  0.79540  0.85677  1.0000
  I   I331      1.0  0.10656  0.49450  0.40152  1.0000
  I   I332      1.0  0.76522  0.19273  0.87009  1.0000
  I   I333      1.0  0.99075  0.41250  0.25336  1.0000
  I   I334      1.0  0.52891  0.27089  0.86692  1.0000
  I   I335      1.0  0.60074  0.10711  0.50119  1.0000
  I   I336      1.0  0.50769  0.04656  0.15290  1.0000
  I   I337      1.0  0.77227  0.66065  0.31990  1.0000
  I   I338      1.0  0.78912  0.03435  0.10284  1.0000
  I   I339      1.0  0.88252  0.05048  0.31362  1.0000
  I   I340      1.0  0.36415  0.06129  0.60154  1.0000
  I   I341      1.0  0.97329  0.29483  0.24505  1.0000
  I   I342      1.0  0.02298  0.32423  0.87306  1.0000
  I   I343      1.0  0.00697  0.86607  0.48010  1.0000
  I   I344      1.0  0.90509  0.15443  0.69701  1.0000
  I   I345      1.0  0.86765  0.91286  0.89161  1.0000
  I   I346      1.0  0.33839  0.79587  0.06558  1.0000
  I   I347      1.0  0.49825  0.84835  0.16733  1.0000
  I   I348      1.0  0.84117  0.74003  0.38098  1.0000
  I   I349      1.0  0.31499  0.08068  0.15200  1.0000
  I   I350      1.0  0.46164  0.24833  0.41657  1.0000
  I   I351      1.0  0.37232  0.14290  0.15610  1.0000
  I   I352      1.0  0.24673  0.34189  0.16621  1.0000
  I   I353      1.0  0.23285  0.66145  0.15175  1.0000
  I   I354      1.0  0.16441  0.85748  0.57638  1.0000
  I   I355      1.0  0.58627  0.77804  0.59535  1.0000
  I   I356      1.0  0.85837  0.79177  0.97354  1.0000
  I   I357      1.0  0.37410  0.43489  0.16999  1.0000
  I   I358      1.0  0.49059  0.90332  0.52743  1.0000
  I   I359      1.0  0.71884  0.87884  0.55190  1.0000
  I   I360      1.0  0.60531  0.06158  0.81528  1.0000
  I   I361      1.0  0.35370  0.41639  0.71843  1.0000
  I   I362      1.0  0.31496  0.20853  0.79154  1.0000
  I   I363      1.0  0.11156  0.40106  0.73546  1.0000
  I   I364      1.0  0.89317  0.48463  0.71035  1.0000
  I   I365      1.0  0.52543  0.64835  0.64760  1.0000
  I   I366      1.0  0.71404  0.42234  0.76073  1.0000
  I   I367      1.0  0.84537  0.45442  0.09831  1.0000
  I   I368      1.0  0.69373  0.41120  0.04131  1.0000
  I   I369      1.0  0.81246  0.27095  0.38584  1.0000
  I   I370      1.0  0.96390  0.73534  0.04883  1.0000
  I   I371      1.0  0.66228  0.64386  0.96680  1.0000
  I   I372      1.0  0.90945  0.65541  0.87618  1.0000
  I   I373      1.0  0.71125  0.26653  0.09055  1.0000
  I   I374      1.0  0.50117  0.27284  0.16712  1.0000
  I   I375      1.0  0.45317  0.45073  0.08973  1.0000
  I   I376      1.0  0.24763  0.96263  0.50427  1.0000
  I   I377      1.0  0.67414  0.16787  0.65083  1.0000
  I   I378      1.0  0.38878  0.75674  0.73939  1.0000
  I   I379      1.0  0.04996  0.51396  0.52824  1.0000
  I   I380      1.0  0.77405  0.20197  0.99830  1.0000
  I   I381      1.0  0.95274  0.41223  0.36679  1.0000
  I   I382      1.0  0.48485  0.33918  0.94420  1.0000
  I   I383      1.0  0.65337  0.11837  0.59785  1.0000
  I   I384      1.0  0.52600  0.03482  0.02144  1.0000
