data_image0
_chemical_formula_structural       Ti96I384
_chemical_formula_sum              "Ti96 I384"
_cell_length_a       57.8209
_cell_length_b       58.4138
_cell_length_c       28.2966
_cell_angle_alpha    88.7757
_cell_angle_beta     88.7757
_cell_angle_gamma    62.1586

_space_group_name_H-M_alt    "P 1"
_space_group_IT_number       1

loop_
  _space_group_symop_operation_xyz
  'x, y, z'

loop_
  _atom_site_type_symbol
  _atom_site_label
  _atom_site_symmetry_multiplicity
  _atom_site_fract_x
  _atom_site_fract_y
  _atom_site_fract_z
  _atom_site_occupancy
  Ti  Ti1       1.0  0.89630  0.74569  0.92761  1.0000
  Ti  Ti2       1.0  0.72021  0.00162  0.13517  1.0000
  Ti  Ti3       1.0  0.82721  0.68672  0.61521  1.0000
  Ti  Ti4       1.0  0.35469  0.26076  0.23142  1.0000
  Ti  Ti5       1.0  0.14777  0.82380  0.09491  1.0000
  Ti  Ti6       1.0  0.13989  0.08881  0.18511  1.0000
  Ti  Ti7       1.0  0.96130  0.86930  0.81602  1.0000
  Ti  Ti8       1.0  0.22151  0.78165  0.48639  1.0000
  Ti  Ti9       1.0  0.74682  0.20052  0.04069  1.0000
  Ti  Ti10      1.0  0.49400  0.01576  0.16253  1.0000
  Ti  Ti11      1.0  0.11679  0.55253  0.80657  1.0000
  Ti  Ti12      1.0  0.62368  0.93439  0.99707  1.0000
  Ti  Ti13      1.0  0.38992  0.21523  0.97052  1.0000
  Ti  Ti14      1.0  0.13582  0.43156  0.17627  1.0000
  Ti  Ti15      1.0  0.28879  0.95199  0.84580  1.0000
  Ti  Ti16      1.0  0.00946  0.97701  0.40825  1.0000
  Ti  Ti17      1.0  0.17449  0.61917  0.10599  1.0000
  Ti  Ti18      1.0  0.96510  0.41125  0.09887  1.0000
  Ti  Ti19      1.0  0.74329  0.66704  0.25120  1.0000
  Ti  Ti20      1.0  0.73622  0.83469  0.33689  1.0000
  Ti  Ti21      1.0  0.22773  0.45837  0.29695  1.0000
  Ti  Ti22      1.0  0.47367  0.92282  0.48182  1.0000
  Ti  Ti23      1.0  0.49578  0.85990  0.95069  1.0000
  Ti  Ti24      1.0  0.58740  0.92746  0.64225  1.0000
  Ti  Ti25      1.0  0.19239  0.23711  0.62166  1.0000
  Ti  Ti26      1.0  0.22634  0.37905  0.96895  1.0000
  Ti  Ti27      1.0  0.41391  0.47385  0.47253  1.0000
  Ti  Ti28      1.0  0.58839  0.65013  0.59342  1.0000
  Ti  Ti29      1.0  0.84757  0.35497  0.46530  1.0000
  Ti  Ti30      1.0  0.80895  0.54002  0.63400  1.0000
  Ti  Ti31      1.0  0.75671  0.38487  0.22377  1.0000
  Ti  Ti32      1.0  0.90098  0.03596  0.13328  1.0000
  Ti  Ti33      1.0  0.08940  0.08099  0.56953  1.0000
  Ti  Ti34      1.0  0.90443  0.75237  0.39442  1.0000
  Ti  Ti35      1.0  0.63919  0.59377  0.90016  1.0000
  Ti  Ti36      1.0  0.00008  0.46402  0.52677  1.0000
  Ti  Ti37      1.0  0.92391  0.27338  0.08371  1.0000
  Ti  Ti38      1.0  0.62490  0.27457  0.41609  1.0000
  Ti  Ti39      1.0  0.35995  0.07639  0.29391  1.0000
  Ti  Ti40      1.0  0.28597  0.68936  0.13391  1.0000
  Ti  Ti41      1.0  0.62384  0.44933  0.55655  1.0000
  Ti  Ti42      1.0  0.44956  0.70097  0.23629  1.0000
  Ti  Ti43      1.0  0.03723  0.93796  0.74777  1.0000
  Ti  Ti44      1.0  0.90159  0.58244  0.11370  1.0000
  Ti  Ti45      1.0  0.87914  0.42415  0.86423  1.0000
  Ti  Ti46      1.0  0.75083  0.06229  0.39206  1.0000
  Ti  Ti47      1.0  0.42768  0.36265  0.70484  1.0000
  Ti  Ti48      1.0  0.48606  0.55728  0.12334  1.0000
  Ti  Ti49      1.0  0.90347  0.72596  0.83403  1.0000
  Ti  Ti50      1.0  0.78432  0.95118  0.98703  1.0000
  Ti  Ti51      1.0  0.71140  0.08300  0.11595  1.0000
  Ti  Ti52      1.0  0.39971  0.23458  0.31661  1.0000
  Ti  Ti53      1.0  0.10689  0.80919  0.17789  1.0000
  Ti  Ti54      1.0  0.09601  0.14776  0.07912  1.0000
  Ti  Ti55      1.0  0.01534  0.79922  0.82772  1.0000
  Ti  Ti56      1.0  0.22302  0.72736  0.43520  1.0000
  Ti  Ti57      1.0  0.74666  0.26714  0.09267  1.0000
  Ti  Ti58      1.0  0.09953  0.94473  0.67217  1.0000
  Ti  Ti59      1.0  0.56013  0.04158  0.14856  1.0000
  Ti  Ti60      1.0  0.67742  0.89485  0.97230  1.0000
  Ti  Ti61      1.0  0.26622  0.02376  0.80686  1.0000
  Ti  Ti62      1.0  0.41027  0.14288  0.95527  1.0000
  Ti  Ti63      1.0  0.15692  0.38176  0.26020  1.0000
  Ti  Ti64      1.0  0.94574  0.46437  0.21833  1.0000
  Ti  Ti65      1.0  0.04711  0.89510  0.35816  1.0000
  Ti  Ti66      1.0  0.28483  0.58727  0.68204  1.0000
  Ti  Ti67      1.0  0.69476  0.67485  0.32463  1.0000
  Ti  Ti68      1.0  0.68355  0.90744  0.25690  1.0000
  Ti  Ti69      1.0  0.28428  0.41263  0.28890  1.0000
  Ti  Ti70      1.0  0.52298  0.93253  0.56273  1.0000
  Ti  Ti71      1.0  0.44610  0.90452  0.87082  1.0000
  Ti  Ti72      1.0  0.46169  0.76378  0.77638  1.0000
  Ti  Ti73      1.0  0.43463  0.48893  0.58544  1.0000
  Ti  Ti74      1.0  0.20726  0.26351  0.52722  1.0000
  Ti  Ti75      1.0  0.22905  0.33415  0.87069  1.0000
  Ti  Ti76      1.0  0.77607  0.58739  0.68954  1.0000
  Ti  Ti77      1.0  0.52965  0.71248  0.50410  1.0000
  Ti  Ti78      1.0  0.87167  0.40660  0.45214  1.0000
  Ti  Ti79      1.0  0.13482  0.04729  0.63626  1.0000
  Ti  Ti80      1.0  0.75541  0.37996  0.06596  1.0000
  Ti  Ti81      1.0  0.92813  0.09680  0.16552  1.0000
  Ti  Ti82      1.0  0.88853  0.80072  0.33439  1.0000
  Ti  Ti83      1.0  0.60048  0.56041  0.83913  1.0000
  Ti  Ti84      1.0  0.07153  0.45780  0.60243  1.0000
  Ti  Ti85      1.0  0.94591  0.20580  0.04188  1.0000
  Ti  Ti86      1.0  0.54004  0.33173  0.46368  1.0000
  Ti  Ti87      1.0  0.37748  0.07512  0.39139  1.0000
  Ti  Ti88      1.0  0.24154  0.67650  0.07289  1.0000
  Ti  Ti89      1.0  0.61354  0.48990  0.41658  1.0000
  Ti  Ti90      1.0  0.40111  0.74366  0.11421  1.0000
  Ti  Ti91      1.0  0.91166  0.38367  0.78903  1.0000
  Ti  Ti92      1.0  0.90347  0.08051  0.86397  1.0000
  Ti  Ti93      1.0  0.96878  0.59787  0.14801  1.0000
  Ti  Ti94      1.0  0.49169  0.49615  0.07352  1.0000
  Ti  Ti95      1.0  0.65671  0.10228  0.38055  1.0000
  Ti  Ti96      1.0  0.42225  0.36595  0.83552  1.0000
  I   I1        1.0  0.82094  0.90350  0.96337  1.0000
  I   I2        1.0  0.67585  0.01137  0.17128  1.0000
  I   I3        1.0  0.93442  0.76146  0.93905  1.0000
  I   I4        1.0  0.15494  0.76958  0.14519  1.0000
  I   I5        1.0  0.15618  0.03988  0.16254  1.0000
  I   I6        1.0  0.06534  0.18283  0.14590  1.0000
  I   I7        1.0  0.21949  0.72039  0.34549  1.0000
  I   I8        1.0  0.17475  0.77524  0.47586  1.0000
  I   I9        1.0  0.75064  0.22086  0.13757  1.0000
  I   I10       1.0  0.50018  0.05040  0.22068  1.0000
  I   I11       1.0  0.08670  0.55071  0.87299  1.0000
  I   I12       1.0  0.17049  0.78962  0.01809  1.0000
  I   I13       1.0  0.40848  0.17733  0.03913  1.0000
  I   I14       1.0  0.17023  0.33401  0.27398  1.0000
  I   I15       1.0  0.28562  0.90858  0.84153  1.0000
  I   I16       1.0  0.00651  0.92774  0.42259  1.0000
  I   I17       1.0  0.28924  0.62235  0.62824  1.0000
  I   I18       1.0  0.96510  0.49959  0.21348  1.0000
  I   I19       1.0  0.72285  0.88468  0.20399  1.0000
  I   I20       1.0  0.23814  0.45286  0.38596  1.0000
  I   I21       1.0  0.31326  0.38783  0.35838  1.0000
  I   I22       1.0  0.45607  0.89099  0.78463  1.0000
  I   I23       1.0  0.54850  0.83260  0.95311  1.0000
  I   I24       1.0  0.51962  0.97885  0.55829  1.0000
  I   I25       1.0  0.16571  0.24850  0.52473  1.0000
  I   I26       1.0  0.20421  0.42867  0.99782  1.0000
  I   I27       1.0  0.38029  0.47481  0.41947  1.0000
  I   I28       1.0  0.59340  0.62284  0.52261  1.0000
  I   I29       1.0  0.80309  0.39436  0.48594  1.0000
  I   I30       1.0  0.77730  0.52372  0.60143  1.0000
  I   I31       1.0  0.71254  0.42643  0.06415  1.0000
  I   I32       1.0  0.96655  0.09878  0.11585  1.0000
  I   I33       1.0  0.16829  0.05763  0.58074  1.0000
  I   I34       1.0  0.64777  0.63320  0.89143  1.0000
  I   I35       1.0  0.01643  0.45459  0.62161  1.0000
  I   I36       1.0  0.87922  0.84937  0.33504  1.0000
  I   I37       1.0  0.91490  0.23287  0.12331  1.0000
  I   I38       1.0  0.39083  0.10073  0.31329  1.0000
  I   I39       1.0  0.98498  0.17266  0.99778  1.0000
  I   I40       1.0  0.59292  0.45903  0.46570  1.0000
  I   I41       1.0  0.48332  0.71005  0.27413  1.0000
  I   I42       1.0  0.26138  0.65368  0.99347  1.0000
  I   I43       1.0  0.04880  0.94562  0.65030  1.0000
  I   I44       1.0  0.99209  0.59925  0.22582  1.0000
  I   I45       1.0  0.83136  0.45572  0.83588  1.0000
  I   I46       1.0  0.78854  0.03669  0.33321  1.0000
  I   I47       1.0  0.40693  0.33514  0.67610  1.0000
  I   I48       1.0  0.54138  0.47997  0.05144  1.0000
  I   I49       1.0  0.88819  0.74043  0.01656  1.0000
  I   I50       1.0  0.73351  0.98425  0.04007  1.0000
  I   I51       1.0  0.69001  0.12276  0.06164  1.0000
  I   I52       1.0  0.35807  0.22479  0.30488  1.0000
  I   I53       1.0  0.12024  0.84753  0.17194  1.0000
  I   I54       1.0  0.06853  0.13484  0.02534  1.0000
  I   I55       1.0  0.92471  0.87739  0.88747  1.0000
  I   I56       1.0  0.23390  0.76657  0.39261  1.0000
  I   I57       1.0  0.70341  0.25096  0.05304  1.0000
  I   I58       1.0  0.52344  0.03857  0.09588  1.0000
  I   I59       1.0  0.45258  0.02229  0.12543  1.0000
  I   I60       1.0  0.64525  0.87768  0.94100  1.0000
  I   I61       1.0  0.39654  0.13703  0.86544  1.0000
  I   I62       1.0  0.45368  0.10288  0.95054  1.0000
  I   I63       1.0  0.08986  0.46686  0.17291  1.0000
  I   I64       1.0  0.99127  0.98449  0.49481  1.0000
  I   I65       1.0  0.08723  0.87456  0.29851  1.0000
  I   I66       1.0  0.28686  0.54783  0.63877  1.0000
  I   I67       1.0  0.66294  0.72182  0.35252  1.0000
  I   I68       1.0  0.73573  0.78841  0.34488  1.0000
  I   I69       1.0  0.24602  0.43146  0.21367  1.0000
  I   I70       1.0  0.53641  0.88625  0.52177  1.0000
  I   I71       1.0  0.46190  0.91006  0.97000  1.0000
  I   I72       1.0  0.49403  0.78642  0.76610  1.0000
  I   I73       1.0  0.40614  0.52285  0.49625  1.0000
  I   I74       1.0  0.25883  0.29882  0.93271  1.0000
  I   I75       1.0  0.22300  0.38528  0.86899  1.0000
  I   I76       1.0  0.63703  0.61912  0.62351  1.0000
  I   I77       1.0  0.58832  0.68940  0.52959  1.0000
  I   I78       1.0  0.84751  0.45481  0.41596  1.0000
  I   I79       1.0  0.15596  0.03704  0.72379  1.0000
  I   I80       1.0  0.71125  0.41838  0.26331  1.0000
  I   I81       1.0  0.88693  0.01499  0.20106  1.0000
  I   I82       1.0  0.93945  0.77504  0.32568  1.0000
  I   I83       1.0  0.58894  0.61427  0.86331  1.0000
  I   I84       1.0  0.11614  0.45575  0.56134  1.0000
  I   I85       1.0  0.92104  0.17873  0.04094  1.0000
  I   I86       1.0  0.51175  0.30721  0.46826  1.0000
  I   I87       1.0  0.35405  0.09007  0.20157  1.0000
  I   I88       1.0  0.25957  0.72001  0.06013  1.0000
  I   I89       1.0  0.57529  0.53644  0.41227  1.0000
  I   I90       1.0  0.40227  0.72400  0.26167  1.0000
  I   I91       1.0  0.92893  0.40666  0.72621  1.0000
  I   I92       1.0  0.88884  0.10891  0.93583  1.0000
  I   I93       1.0  0.00825  0.55838  0.10159  1.0000
  I   I94       1.0  0.50115  0.52651  0.20574  1.0000
  I   I95       1.0  0.61817  0.11186  0.44044  1.0000
  I   I96       1.0  0.40650  0.33150  0.83941  1.0000
  I   I97       1.0  0.78870  0.71977  0.56866  1.0000
  I   I98       1.0  0.94206  0.69875  0.90415  1.0000
  I   I99       1.0  0.68520  0.05917  0.08890  1.0000
  I   I100      1.0  0.36027  0.22165  0.17647  1.0000
  I   I101      1.0  0.35159  0.28263  0.32463  1.0000
  I   I102      1.0  0.10563  0.81413  0.07665  1.0000
  I   I103      1.0  0.02499  0.76268  0.77284  1.0000
  I   I104      1.0  0.96562  0.90993  0.84934  1.0000
  I   I105      1.0  0.76161  0.26384  0.00508  1.0000
  I   I106      1.0  0.58283  0.92764  0.00998  1.0000
  I   I107      1.0  0.52828  0.96856  0.13406  1.0000
  I   I108      1.0  0.71654  0.85170  0.00278  1.0000
  I   I109      1.0  0.26322  0.00002  0.89395  1.0000
  I   I110      1.0  0.38600  0.12466  0.01119  1.0000
  I   I111      1.0  0.11830  0.39175  0.18689  1.0000
  I   I112      1.0  0.93488  0.45249  0.05276  1.0000
  I   I113      1.0  0.06016  0.95424  0.43161  1.0000
  I   I114      1.0  0.20417  0.59046  0.03879  1.0000
  I   I115      1.0  0.73149  0.62810  0.27740  1.0000
  I   I116      1.0  0.65979  0.67354  0.26851  1.0000
  I   I117      1.0  0.63581  0.92078  0.22485  1.0000
  I   I118      1.0  0.51000  0.94731  0.46387  1.0000
  I   I119      1.0  0.44209  0.96213  0.43675  1.0000
  I   I120      1.0  0.48090  0.73387  0.85246  1.0000
  I   I121      1.0  0.44221  0.47967  0.40302  1.0000
  I   I122      1.0  0.24342  0.26469  0.57783  1.0000
  I   I123      1.0  0.27686  0.36644  0.96499  1.0000
  I   I124      1.0  0.76106  0.60489  0.59657  1.0000
  I   I125      1.0  0.53096  0.70418  0.41618  1.0000
  I   I126      1.0  0.85728  0.41862  0.54416  1.0000
  I   I127      1.0  0.03722  0.10856  0.57756  1.0000
  I   I128      1.0  0.77259  0.40946  0.27488  1.0000
  I   I129      1.0  0.94663  0.10299  0.24525  1.0000
  I   I130      1.0  0.05407  0.44938  0.51782  1.0000
  I   I131      1.0  0.90024  0.79574  0.43997  1.0000
  I   I132      1.0  0.63575  0.52155  0.79705  1.0000
  I   I133      1.0  0.40712  0.03321  0.29436  1.0000
  I   I134      1.0  0.56716  0.29573  0.38885  1.0000
  I   I135      1.0  0.62757  0.24095  0.35242  1.0000
  I   I136      1.0  0.47317  0.64683  0.23401  1.0000
  I   I137      1.0  0.22890  0.70758  0.15389  1.0000
  I   I138      1.0  0.65517  0.44682  0.62133  1.0000
  I   I139      1.0  0.94160  0.38459  0.86661  1.0000
  I   I140      1.0  0.94809  0.04096  0.85617  1.0000
  I   I141      1.0  0.90898  0.61648  0.17793  1.0000
  I   I142      1.0  0.48475  0.54410  0.02703  1.0000
  I   I143      1.0  0.76529  0.09811  0.41319  1.0000
  I   I144      1.0  0.47916  0.32759  0.70573  1.0000
  I   I145      1.0  0.91372  0.76754  0.80028  1.0000
  I   I146      1.0  0.74737  0.96065  0.18476  1.0000
  I   I147      1.0  0.87417  0.68154  0.61088  1.0000
  I   I148      1.0  0.41702  0.20865  0.39645  1.0000
  I   I149      1.0  0.05436  0.82786  0.17158  1.0000
  I   I150      1.0  0.11035  0.10621  0.25809  1.0000
  I   I151      1.0  0.99230  0.79321  0.90140  1.0000
  I   I152      1.0  0.22885  0.74291  0.54515  1.0000
  I   I153      1.0  0.79275  0.15788  0.05763  1.0000
  I   I154      1.0  0.13161  0.95010  0.72646  1.0000
  I   I155      1.0  0.10154  0.55038  0.71740  1.0000
  I   I156      1.0  0.60774  0.96550  0.07949  1.0000
  I   I157      1.0  0.22670  0.06943  0.83052  1.0000
  I   I158      1.0  0.10738  0.40212  0.30309  1.0000
  I   I159      1.0  0.27526  0.02451  0.71859  1.0000
  I   I160      1.0  0.89255  0.48298  0.21612  1.0000
  I   I161      1.0  0.14452  0.59390  0.10207  1.0000
  I   I162      1.0  0.00904  0.38651  0.05109  1.0000
  I   I163      1.0  0.70912  0.71275  0.21792  1.0000
  I   I164      1.0  0.77288  0.82716  0.39864  1.0000
  I   I165      1.0  0.20554  0.50655  0.26418  1.0000
  I   I166      1.0  0.47254  0.94413  0.57517  1.0000
  I   I167      1.0  0.48770  0.84313  0.03328  1.0000
  I   I168      1.0  0.63489  0.89822  0.63536  1.0000
  I   I169      1.0  0.21622  0.23858  0.69460  1.0000
  I   I170      1.0  0.22818  0.19837  0.57528  1.0000
  I   I171      1.0  0.47233  0.45872  0.53183  1.0000
  I   I172      1.0  0.77306  0.62341  0.74983  1.0000
  I   I173      1.0  0.84885  0.32163  0.53141  1.0000
  I   I174      1.0  0.86160  0.49592  0.64562  1.0000
  I   I175      1.0  0.78937  0.37448  0.99651  1.0000
  I   I176      1.0  0.89724  0.07587  0.20317  1.0000
  I   I177      1.0  0.10402  0.10025  0.64770  1.0000
  I   I178      1.0  0.88146  0.73895  0.46600  1.0000
  I   I179      1.0  0.68163  0.57110  0.94724  1.0000
  I   I180      1.0  0.99181  0.43106  0.48573  1.0000
  I   I181      1.0  0.87325  0.29642  0.06499  1.0000
  I   I182      1.0  0.51966  0.37888  0.42896  1.0000
  I   I183      1.0  0.32239  0.06274  0.30681  1.0000
  I   I184      1.0  0.28942  0.71614  0.20153  1.0000
  I   I185      1.0  0.65229  0.40405  0.52983  1.0000
  I   I186      1.0  0.36413  0.72692  0.09223  1.0000
  I   I187      1.0  0.86354  0.07376  0.84798  1.0000
  I   I188      1.0  0.85631  0.59035  0.15486  1.0000
  I   I189      1.0  0.88255  0.37540  0.86289  1.0000
  I   I190      1.0  0.71012  0.04701  0.37992  1.0000
  I   I191      1.0  0.39813  0.39537  0.91371  1.0000
  I   I192      1.0  0.48991  0.46858  0.00600  1.0000
  I   I193      1.0  0.87703  0.71140  0.90083  1.0000
  I   I194      1.0  0.81453  0.96842  0.01616  1.0000
  I   I195      1.0  0.80503  0.70448  0.69805  1.0000
  I   I196      1.0  0.39070  0.27775  0.20250  1.0000
  I   I197      1.0  0.09077  0.91638  0.74972  1.0000
  I   I198      1.0  0.10763  0.17520  0.02474  1.0000
  I   I199      1.0  0.93292  0.89231  0.74258  1.0000
  I   I200      1.0  0.19003  0.70701  0.46248  1.0000
  I   I201      1.0  0.72203  0.17246  0.04961  1.0000
  I   I202      1.0  0.57794  0.00752  0.22099  1.0000
  I   I203      1.0  0.11449  0.59585  0.83350  1.0000
  I   I204      1.0  0.70262  0.89455  0.89689  1.0000
  I   I205      1.0  0.38261  0.24753  0.03674  1.0000
  I   I206      1.0  0.18755  0.39733  0.21016  1.0000
  I   I207      1.0  0.31052  0.01655  0.83430  1.0000
  I   I208      1.0  0.99635  0.02576  0.39305  1.0000
  I   I209      1.0  0.19412  0.61495  0.18780  1.0000
  I   I210      1.0  0.94285  0.38246  0.07771  1.0000
  I   I211      1.0  0.74210  0.68021  0.34873  1.0000
  I   I212      1.0  0.77486  0.82219  0.26780  1.0000
  I   I213      1.0  0.24399  0.40409  0.31625  1.0000
  I   I214      1.0  0.44287  0.90660  0.52911  1.0000
  I   I215      1.0  0.43506  0.95388  0.85516  1.0000
  I   I216      1.0  0.58805  0.96783  0.60243  1.0000
  I   I217      1.0  0.16977  0.29412  0.59794  1.0000
  I   I218      1.0  0.23167  0.35881  0.05018  1.0000
  I   I219      1.0  0.39553  0.47727  0.56833  1.0000
  I   I220      1.0  0.47975  0.72677  0.50242  1.0000
  I   I221      1.0  0.89261  0.35283  0.49731  1.0000
  I   I222      1.0  0.82733  0.54531  0.54772  1.0000
  I   I223      1.0  0.78731  0.37803  0.14815  1.0000
  I   I224      1.0  0.93402  0.99305  0.09373  1.0000
  I   I225      1.0  0.09010  0.11759  0.51045  1.0000
  I   I226      1.0  0.89631  0.73822  0.31301  1.0000
  I   I227      1.0  0.66541  0.56742  0.82289  1.0000
  I   I228      1.0  0.05191  0.50792  0.61248  1.0000
  I   I229      1.0  0.95312  0.29442  0.05779  1.0000
  I   I230      1.0  0.62907  0.24321  0.48279  1.0000
  I   I231      1.0  0.38292  0.10851  0.45037  1.0000
  I   I232      1.0  0.33447  0.67117  0.10172  1.0000
  I   I233      1.0  0.58446  0.45142  0.60006  1.0000
  I   I234      1.0  0.41377  0.75309  0.03336  1.0000
  I   I235      1.0  0.98913  0.95177  0.71952  1.0000
  I   I236      1.0  0.86177  0.61707  0.06278  1.0000
  I   I237      1.0  0.89621  0.45661  0.83887  1.0000
  I   I238      1.0  0.69754  0.10518  0.42129  1.0000
  I   I239      1.0  0.38275  0.39399  0.75486  1.0000
  I   I240      1.0  0.52202  0.57255  0.13546  1.0000
  I   I241      1.0  0.85716  0.79069  0.90323  1.0000
  I   I242      1.0  0.73965  0.02963  0.18384  1.0000
  I   I243      1.0  0.82598  0.64231  0.62723  1.0000
  I   I244      1.0  0.31211  0.29775  0.20110  1.0000
  I   I245      1.0  0.12666  0.86966  0.05898  1.0000
  I   I246      1.0  0.18928  0.07550  0.21133  1.0000
  I   I247      1.0  0.01267  0.85196  0.79426  1.0000
  I   I248      1.0  0.19097  0.83344  0.50973  1.0000
  I   I249      1.0  0.75928  0.19297  0.94993  1.0000
  I   I250      1.0  0.48580  0.99537  0.23913  1.0000
  I   I251      1.0  0.16130  0.51403  0.81913  1.0000
  I   I252      1.0  0.60766  0.96228  0.92096  1.0000
  I   I253      1.0  0.34413  0.21749  0.95976  1.0000
  I   I254      1.0  0.15448  0.46331  0.17348  1.0000
  I   I255      1.0  0.24171  0.98539  0.79759  1.0000
  I   I256      1.0  0.02667  0.86759  0.32585  1.0000
  I   I257      1.0  0.14239  0.66370  0.08309  1.0000
  I   I258      1.0  0.96378  0.44820  0.30572  1.0000
  I   I259      1.0  0.76183  0.63502  0.17382  1.0000
  I   I260      1.0  0.72182  0.88781  0.33226  1.0000
  I   I261      1.0  0.18173  0.46429  0.30243  1.0000
  I   I262      1.0  0.48720  0.89328  0.40208  1.0000
  I   I263      1.0  0.50335  0.88200  0.86426  1.0000
  I   I264      1.0  0.58362  0.94761  0.72497  1.0000
  I   I265      1.0  0.15563  0.22817  0.64895  1.0000
  I   I266      1.0  0.26120  0.32385  0.79910  1.0000
  I   I267      1.0  0.43971  0.42308  0.47080  1.0000
  I   I268      1.0  0.54148  0.69933  0.59233  1.0000
  I   I269      1.0  0.85666  0.33019  0.38430  1.0000
  I   I270      1.0  0.83049  0.57293  0.66249  1.0000
  I   I271      1.0  0.78886  0.33926  0.26390  1.0000
  I   I272      1.0  0.85999  0.05226  0.08187  1.0000
  I   I273      1.0  0.09956  0.05186  0.49691  1.0000
  I   I274      1.0  0.84690  0.79578  0.38245  1.0000
  I   I275      1.0  0.58557  0.58023  0.75398  1.0000
  I   I276      1.0  0.99028  0.50508  0.47362  1.0000
  I   I277      1.0  0.91939  0.30075  0.16574  1.0000
  I   I278      1.0  0.66673  0.27638  0.39431  1.0000
  I   I279      1.0  0.34962  0.05786  0.44545  1.0000
  I   I280      1.0  0.20092  0.71212  0.03640  1.0000
  I   I281      1.0  0.66178  0.47969  0.40666  1.0000
  I   I282      1.0  0.43793  0.69144  0.14104  1.0000
  I   I283      1.0  0.01539  0.98898  0.76984  1.0000
  I   I284      1.0  0.91237  0.53913  0.07504  1.0000
  I   I285      1.0  0.86952  0.43329  0.95236  1.0000
  I   I286      1.0  0.76162  0.03998  0.47396  1.0000
  I   I287      1.0  0.46489  0.34027  0.87634  1.0000
  I   I288      1.0  0.44778  0.59999  0.14371  1.0000
  I   I289      1.0  0.85977  0.73561  0.79964  1.0000
  I   I290      1.0  0.74809  0.93422  0.96578  1.0000
  I   I291      1.0  0.75541  0.07924  0.12739  1.0000
  I   I292      1.0  0.41726  0.26824  0.33583  1.0000
  I   I293      1.0  0.10474  0.78498  0.25242  1.0000
  I   I294      1.0  0.09972  0.10110  0.12332  1.0000
  I   I295      1.0  0.95957  0.82581  0.79617  1.0000
  I   I296      1.0  0.26411  0.78199  0.49702  1.0000
  I   I297      1.0  0.77606  0.27640  0.15870  1.0000
  I   I298      1.0  0.07527  0.99399  0.62252  1.0000
  I   I299      1.0  0.53878  0.09039  0.18435  1.0000
  I   I300      1.0  0.66456  0.94551  0.99781  1.0000
  I   I301      1.0  0.31123  0.95423  0.76606  1.0000
  I   I302      1.0  0.38693  0.24587  0.89648  1.0000
  I   I303      1.0  0.13500  0.42839  0.08593  1.0000
  I   I304      1.0  0.99121  0.43669  0.16910  1.0000
  I   I305      1.0  0.02628  0.95023  0.32474  1.0000
  I   I306      1.0  0.23447  0.61281  0.68813  1.0000
  I   I307      1.0  0.78340  0.67473  0.25642  1.0000
  I   I308      1.0  0.68767  0.85542  0.27912  1.0000
  I   I309      1.0  0.32420  0.38106  0.22885  1.0000
  I   I310      1.0  0.53673  0.93341  0.65853  1.0000
  I   I311      1.0  0.47640  0.83674  0.90544  1.0000
  I   I312      1.0  0.41206  0.79833  0.77448  1.0000
  I   I313      1.0  0.45566  0.51977  0.60161  1.0000
  I   I314      1.0  0.18701  0.30378  0.47315  1.0000
  I   I315      1.0  0.19210  0.36222  0.94674  1.0000
  I   I316      1.0  0.79247  0.54304  0.73242  1.0000
  I   I317      1.0  0.52576  0.76046  0.50103  1.0000
  I   I318      1.0  0.84702  0.39051  0.38534  1.0000
  I   I319      1.0  0.08533  0.05532  0.67001  1.0000
  I   I320      1.0  0.72929  0.37508  0.14537  1.0000
  I   I321      1.0  0.92963  0.06616  0.08412  1.0000
  I   I322      1.0  0.86445  0.81363  0.25071  1.0000
  I   I323      1.0  0.57386  0.53549  0.85868  1.0000
  I   I324      1.0  0.09697  0.43107  0.67482  1.0000
  I   I325      1.0  0.92204  0.24695  0.97978  1.0000
  I   I326      1.0  0.59587  0.31912  0.46601  1.0000
  I   I327      1.0  0.43059  0.04417  0.40044  1.0000
  I   I328      1.0  0.21686  0.64894  0.07790  1.0000
  I   I329      1.0  0.62615  0.48991  0.51227  1.0000
  I   I330      1.0  0.42527  0.75632  0.18648  1.0000
  I   I331      1.0  0.86779  0.40542  0.72692  1.0000
  I   I332      1.0  0.03715  0.91203  0.81704  1.0000
  I   I333      1.0  0.95730  0.64124  0.10569  1.0000
  I   I334      1.0  0.44805  0.53720  0.11835  1.0000
  I   I335      1.0  0.64760  0.07388  0.32313  1.0000
  I   I336      1.0  0.42819  0.38308  0.62267  1.0000
  I   I337      1.0  0.93037  0.68583  0.77756  1.0000
  I   I338      1.0  0.78215  0.97372  0.89925  1.0000
  I   I339      1.0  0.68923  0.09874  0.20324  1.0000
  I   I340      1.0  0.43064  0.21171  0.24941  1.0000
  I   I341      1.0  0.20153  0.81266  0.10946  1.0000
  I   I342      1.0  0.14473  0.12808  0.13739  1.0000
  I   I343      1.0  0.06090  0.78393  0.86850  1.0000
  I   I344      1.0  0.26955  0.69504  0.44527  1.0000
  I   I345      1.0  0.70589  0.31377  0.09479  1.0000
  I   I346      1.0  0.13051  0.90536  0.62686  1.0000
  I   I347      1.0  0.59810  0.03610  0.09457  1.0000
  I   I348      1.0  0.65708  0.89933  0.06956  1.0000
  I   I349      1.0  0.31781  0.94154  0.91989  1.0000
  I   I350      1.0  0.43625  0.17360  0.92424  1.0000
  I   I351      1.0  0.17337  0.39604  0.34466  1.0000
  I   I352      1.0  0.94573  0.41620  0.18928  1.0000
  I   I353      1.0  0.07928  0.87137  0.42522  1.0000
  I   I354      1.0  0.30984  0.57463  0.75876  1.0000
  I   I355      1.0  0.68492  0.64836  0.39832  1.0000
  I   I356      1.0  0.67048  0.95583  0.26588  1.0000
  I   I357      1.0  0.28712  0.45781  0.28211  1.0000
  I   I358      1.0  0.57985  0.91165  0.55052  1.0000
  I   I359      1.0  0.40547  0.89991  0.89975  1.0000
  I   I360      1.0  0.45961  0.74733  0.69035  1.0000
  I   I361      1.0  0.44688  0.46315  0.66200  1.0000
  I   I362      1.0  0.22974  0.23500  0.45160  1.0000
  I   I363      1.0  0.20425  0.31005  0.83934  1.0000
  I   I364      1.0  0.72958  0.58942  0.71014  1.0000
  I   I365      1.0  0.56197  0.63049  0.63679  1.0000
  I   I366      1.0  0.91950  0.40321  0.45880  1.0000
  I   I367      1.0  0.14265  0.00281  0.60146  1.0000
  I   I368      1.0  0.72644  0.36675  0.01976  1.0000
  I   I369      1.0  0.89500  0.14474  0.15908  1.0000
  I   I370      1.0  0.95138  0.71792  0.42470  1.0000
  I   I371      1.0  0.62370  0.55093  0.92977  1.0000
  I   I372      1.0  0.94967  0.48787  0.55731  1.0000
  I   I373      1.0  0.97357  0.23090  0.08643  1.0000
  I   I374      1.0  0.54990  0.32696  0.55059  1.0000
  I   I375      1.0  0.32636  0.11199  0.35931  1.0000
  I   I376      1.0  0.29670  0.63581  0.11077  1.0000
  I   I377      1.0  0.60937  0.47827  0.33306  1.0000
  I   I378      1.0  0.36052  0.78789  0.12025  1.0000
  I   I379      1.0  0.94069  0.33647  0.78673  1.0000
  I   I380      1.0  0.89739  0.11228  0.79478  1.0000
  I   I381      1.0  0.94214  0.59063  0.07050  1.0000
  I   I382      1.0  0.48211  0.47076  0.13801  1.0000
  I   I383      1.0  0.63545  0.14662  0.33536  1.0000
  I   I384      1.0  0.44411  0.38982  0.77483  1.0000
