data_image0
_chemical_formula_structural       Ti96I384
_chemical_formula_sum              "Ti96 I384"
_cell_length_a       53.2521
_cell_length_b       53.4081
_cell_length_c       25.763
_cell_angle_alpha    88.7757
_cell_angle_beta     88.7757
_cell_angle_gamma    62.1586

_space_group_name_H-M_alt    "P 1"
_space_group_IT_number       1

loop_
  _space_group_symop_operation_xyz
  'x, y, z'

loop_
  _atom_site_type_symbol
  _atom_site_label
  _atom_site_symmetry_multiplicity
  _atom_site_fract_x
  _atom_site_fract_y
  _atom_site_fract_z
  _atom_site_occupancy
  Ti  Ti1       1.0  0.61640  0.70113  0.33947  1.0000
  Ti  Ti2       1.0  0.99884  0.07638  0.29503  1.0000
  Ti  Ti3       1.0  0.47654  0.85051  0.25435  1.0000
  Ti  Ti4       1.0  0.21868  0.01993  0.49913  1.0000
  Ti  Ti5       1.0  0.12078  0.25030  0.36173  1.0000
  Ti  Ti6       1.0  0.08999  0.24198  0.89818  1.0000
  Ti  Ti7       1.0  0.06257  0.81123  0.22593  1.0000
  Ti  Ti8       1.0  0.91411  0.11339  0.59909  1.0000
  Ti  Ti9       1.0  0.91324  0.85186  0.39683  1.0000
  Ti  Ti10      1.0  0.34576  0.78004  0.95970  1.0000
  Ti  Ti11      1.0  0.91759  0.77105  0.84428  1.0000
  Ti  Ti12      1.0  0.95920  0.64051  0.99689  1.0000
  Ti  Ti13      1.0  0.34328  0.24274  0.29596  1.0000
  Ti  Ti14      1.0  0.36017  0.11840  0.63896  1.0000
  Ti  Ti15      1.0  0.35014  0.10074  0.10876  1.0000
  Ti  Ti16      1.0  0.15639  0.69389  0.02950  1.0000
  Ti  Ti17      1.0  0.20430  0.64508  0.31282  1.0000
  Ti  Ti18      1.0  0.29291  0.37699  0.41599  1.0000
  Ti  Ti19      1.0  0.48326  0.71933  0.71876  1.0000
  Ti  Ti20      1.0  0.64129  0.86009  0.76350  1.0000
  Ti  Ti21      1.0  0.22062  0.60718  0.73247  1.0000
  Ti  Ti22      1.0  0.44312  0.87687  0.76112  1.0000
  Ti  Ti23      1.0  0.78299  0.85118  0.12191  1.0000
  Ti  Ti24      1.0  0.50902  0.96576  0.66271  1.0000
  Ti  Ti25      1.0  0.27679  0.25415  0.82756  1.0000
  Ti  Ti26      1.0  0.37790  0.29404  0.97488  1.0000
  Ti  Ti27      1.0  0.46462  0.53082  0.57253  1.0000
  Ti  Ti28      1.0  0.42851  0.64206  0.15915  1.0000
  Ti  Ti29      1.0  0.66351  0.39079  0.94535  1.0000
  Ti  Ti30      1.0  0.69068  0.51229  0.89471  1.0000
  Ti  Ti31      1.0  0.94135  0.46170  0.22171  1.0000
  Ti  Ti32      1.0  0.80256  0.34657  0.68110  1.0000
  Ti  Ti33      1.0  0.92351  0.50756  0.89483  1.0000
  Ti  Ti34      1.0  0.90325  0.94019  0.91209  1.0000
  Ti  Ti35      1.0  0.78664  0.63965  0.00794  1.0000
  Ti  Ti36      1.0  0.79471  0.61591  0.55803  1.0000
  Ti  Ti37      1.0  0.66604  0.22191  0.20438  1.0000
  Ti  Ti38      1.0  0.59434  0.32432  0.39614  1.0000
  Ti  Ti39      1.0  0.52693  0.33450  0.88571  1.0000
  Ti  Ti40      1.0  0.00712  0.10277  0.95259  1.0000
  Ti  Ti41      1.0  0.75969  0.23582  0.63457  1.0000
  Ti  Ti42      1.0  0.21325  0.88091  0.31636  1.0000
  Ti  Ti43      1.0  0.79424  0.36928  0.14376  1.0000
  Ti  Ti44      1.0  0.03668  0.45617  0.47417  1.0000
  Ti  Ti45      1.0  0.04754  0.50740  0.65699  1.0000
  Ti  Ti46      1.0  0.63775  0.99487  0.55623  1.0000
  Ti  Ti47      1.0  0.58016  0.05672  0.19839  1.0000
  Ti  Ti48      1.0  0.62216  0.15261  0.85961  1.0000
  Ti  Ti49      1.0  0.56743  0.78048  0.31046  1.0000
  Ti  Ti50      1.0  0.96183  0.02711  0.28676  1.0000
  Ti  Ti51      1.0  0.04484  0.10847  0.29782  1.0000
  Ti  Ti52      1.0  0.27559  0.95210  0.52246  1.0000
  Ti  Ti53      1.0  0.08804  0.20664  0.43661  1.0000
  Ti  Ti54      1.0  0.07631  0.24240  0.77861  1.0000
  Ti  Ti55      1.0  0.97339  0.85099  0.24466  1.0000
  Ti  Ti56      1.0  0.97179  0.03541  0.63964  1.0000
  Ti  Ti57      1.0  0.85500  0.88081  0.52587  1.0000
  Ti  Ti58      1.0  0.30099  0.84492  0.03708  1.0000
  Ti  Ti59      1.0  0.28618  0.76986  0.87798  1.0000
  Ti  Ti60      1.0  0.95428  0.67446  0.86479  1.0000
  Ti  Ti61      1.0  0.29486  0.19103  0.14754  1.0000
  Ti  Ti62      1.0  0.41538  0.25344  0.26093  1.0000
  Ti  Ti63      1.0  0.29508  0.15573  0.61117  1.0000
  Ti  Ti64      1.0  0.21638  0.40332  0.28786  1.0000
  Ti  Ti65      1.0  0.18643  0.65689  0.18284  1.0000
  Ti  Ti66      1.0  0.13123  0.66428  0.47883  1.0000
  Ti  Ti67      1.0  0.55570  0.64418  0.71932  1.0000
  Ti  Ti68      1.0  0.72811  0.83196  0.77666  1.0000
  Ti  Ti69      1.0  0.25529  0.53316  0.69712  1.0000
  Ti  Ti70      1.0  0.45944  0.93574  0.70651  1.0000
  Ti  Ti71      1.0  0.82685  0.77926  0.07010  1.0000
  Ti  Ti72      1.0  0.72069  0.90552  0.25549  1.0000
  Ti  Ti73      1.0  0.46432  0.49986  0.67996  1.0000
  Ti  Ti74      1.0  0.32032  0.31065  0.84489  1.0000
  Ti  Ti75      1.0  0.36840  0.37618  0.04211  1.0000
  Ti  Ti76      1.0  0.72033  0.55849  0.82835  1.0000
  Ti  Ti77      1.0  0.49837  0.61894  0.12134  1.0000
  Ti  Ti78      1.0  0.63682  0.46978  0.90428  1.0000
  Ti  Ti79      1.0  0.92488  0.42105  0.89830  1.0000
  Ti  Ti80      1.0  0.95755  0.37404  0.23161  1.0000
  Ti  Ti81      1.0  0.82145  0.34007  0.81176  1.0000
  Ti  Ti82      1.0  0.86302  0.03368  0.89798  1.0000
  Ti  Ti83      1.0  0.71475  0.63238  0.07799  1.0000
  Ti  Ti84      1.0  0.80675  0.68545  0.57360  1.0000
  Ti  Ti85      1.0  0.65632  0.15257  0.18516  1.0000
  Ti  Ti86      1.0  0.57986  0.31547  0.23970  1.0000
  Ti  Ti87      1.0  0.51400  0.39729  0.98068  1.0000
  Ti  Ti88      1.0  0.02618  0.02860  0.94880  1.0000
  Ti  Ti89      1.0  0.76241  0.16050  0.62004  1.0000
  Ti  Ti90      1.0  0.22263  0.79472  0.26140  1.0000
  Ti  Ti91      1.0  0.14183  0.47625  0.65697  1.0000
  Ti  Ti92      1.0  0.82108  0.33362  0.01906  1.0000
  Ti  Ti93      1.0  0.99349  0.52836  0.50975  1.0000
  Ti  Ti94      1.0  0.55852  0.17478  0.83828  1.0000
  Ti  Ti95      1.0  0.69502  0.97451  0.66432  1.0000
  Ti  Ti96      1.0  0.51858  0.09803  0.06239  1.0000
  I   I1        1.0  0.98253  0.99256  0.37116  1.0000
  I   I2        1.0  0.97252  0.13552  0.28294  1.0000
  I   I3        1.0  0.55387  0.81703  0.23124  1.0000
  I   I4        1.0  0.10189  0.15260  0.46484  1.0000
  I   I5        1.0  0.09728  0.27957  0.78685  1.0000
  I   I6        1.0  0.13561  0.19109  0.88450  1.0000
  I   I7        1.0  0.91426  0.06170  0.59552  1.0000
  I   I8        1.0  0.89555  0.12629  0.50393  1.0000
  I   I9        1.0  0.95464  0.86312  0.35996  1.0000
  I   I10       1.0  0.33629  0.72872  0.93877  1.0000
  I   I11       1.0  0.90495  0.72902  0.82026  1.0000
  I   I12       1.0  0.29467  0.89734  0.00111  1.0000
  I   I13       1.0  0.39237  0.22052  0.22736  1.0000
  I   I14       1.0  0.36038  0.08503  0.71185  1.0000
  I   I15       1.0  0.27504  0.18860  0.05300  1.0000
  I   I16       1.0  0.13742  0.67957  0.11184  1.0000
  I   I17       1.0  0.10299  0.71862  0.43136  1.0000
  I   I18       1.0  0.24123  0.42366  0.37491  1.0000
  I   I19       1.0  0.69179  0.83755  0.69684  1.0000
  I   I20       1.0  0.28549  0.51844  0.79052  1.0000
  I   I21       1.0  0.27390  0.57930  0.71772  1.0000
  I   I22       1.0  0.85415  0.72895  0.11003  1.0000
  I   I23       1.0  0.77743  0.80238  0.14352  1.0000
  I   I24       1.0  0.51967  0.91833  0.71802  1.0000
  I   I25       1.0  0.26685  0.34733  0.83616  1.0000
  I   I26       1.0  0.38299  0.34631  0.94293  1.0000
  I   I27       1.0  0.44900  0.49274  0.53538  1.0000
  I   I28       1.0  0.46854  0.65332  0.21196  1.0000
  I   I29       1.0  0.61636  0.44647  0.97950  1.0000
  I   I30       1.0  0.65395  0.55936  0.84010  1.0000
  I   I31       1.0  0.99094  0.40953  0.21907  1.0000
  I   I32       1.0  0.77352  0.39282  0.78195  1.0000
  I   I33       1.0  0.95573  0.44564  0.85788  1.0000
  I   I34       1.0  0.83127  0.62070  0.06928  1.0000
  I   I35       1.0  0.83596  0.68229  0.65349  1.0000
  I   I36       1.0  0.85213  0.08187  0.85076  1.0000
  I   I37       1.0  0.61451  0.26028  0.28484  1.0000
  I   I38       1.0  0.46747  0.44033  0.94947  1.0000
  I   I39       1.0  0.61586  0.14418  0.22470  1.0000
  I   I40       1.0  0.77462  0.14923  0.52010  1.0000
  I   I41       1.0  0.27405  0.75381  0.23723  1.0000
  I   I42       1.0  0.01299  0.99874  0.00841  1.0000
  I   I43       1.0  0.83815  0.28037  0.02494  1.0000
  I   I44       1.0  0.97227  0.50029  0.45688  1.0000
  I   I45       1.0  0.00915  0.54418  0.72020  1.0000
  I   I46       1.0  0.67610  0.02011  0.58796  1.0000
  I   I47       1.0  0.57872  0.00945  0.20625  1.0000
  I   I48       1.0  0.59184  0.20368  0.88262  1.0000
  I   I49       1.0  0.58625  0.71706  0.42158  1.0000
  I   I50       1.0  0.96429  0.06429  0.21312  1.0000
  I   I51       1.0  0.09614  0.06718  0.31720  1.0000
  I   I52       1.0  0.25616  0.99297  0.60775  1.0000
  I   I53       1.0  0.06298  0.25587  0.36579  1.0000
  I   I54       1.0  0.11375  0.21291  0.70704  1.0000
  I   I55       1.0  0.00044  0.84213  0.14518  1.0000
  I   I56       1.0  0.02475  0.01151  0.65629  1.0000
  I   I57       1.0  0.90391  0.89143  0.47920  1.0000
  I   I58       1.0  0.37207  0.76432  0.86885  1.0000
  I   I59       1.0  0.28103  0.72308  0.90233  1.0000
  I   I60       1.0  0.99900  0.63065  0.90904  1.0000
  I   I61       1.0  0.33720  0.19937  0.27583  1.0000
  I   I62       1.0  0.45344  0.21766  0.32824  1.0000
  I   I63       1.0  0.40261  0.08105  0.57462  1.0000
  I   I64       1.0  0.20799  0.66078  0.98853  1.0000
  I   I65       1.0  0.24388  0.61996  0.22277  1.0000
  I   I66       1.0  0.16661  0.60891  0.49331  1.0000
  I   I67       1.0  0.57826  0.60758  0.64777  1.0000
  I   I68       1.0  0.61354  0.83301  0.74328  1.0000
  I   I69       1.0  0.20039  0.56810  0.75225  1.0000
  I   I70       1.0  0.40818  0.94177  0.67493  1.0000
  I   I71       1.0  0.79786  0.83455  0.02474  1.0000
  I   I72       1.0  0.69218  0.96137  0.24521  1.0000
  I   I73       1.0  0.50110  0.53796  0.51083  1.0000
  I   I74       1.0  0.38327  0.27704  0.86091  1.0000
  I   I75       1.0  0.31595  0.40893  0.08167  1.0000
  I   I76       1.0  0.45275  0.59302  0.11329  1.0000
  I   I77       1.0  0.53599  0.58907  0.18928  1.0000
  I   I78       1.0  0.66572  0.48120  0.82826  1.0000
  I   I79       1.0  0.89862  0.40935  0.97930  1.0000
  I   I80       1.0  0.93795  0.35671  0.30909  1.0000
  I   I81       1.0  0.79910  0.31089  0.76767  1.0000
  I   I82       1.0  0.86050  0.95588  0.85461  1.0000
  I   I83       1.0  0.78070  0.68973  0.02186  1.0000
  I   I84       1.0  0.76617  0.73573  0.57037  1.0000
  I   I85       1.0  0.62123  0.21348  0.16634  1.0000
  I   I86       1.0  0.57667  0.35747  0.18132  1.0000
  I   I87       1.0  0.49505  0.37875  0.05467  1.0000
  I   I88       1.0  0.03843  0.12736  0.95029  1.0000
  I   I89       1.0  0.80795  0.22328  0.68231  1.0000
  I   I90       1.0  0.23152  0.86299  0.40478  1.0000
  I   I91       1.0  0.16815  0.42666  0.60868  1.0000
  I   I92       1.0  0.84896  0.32867  0.15686  1.0000
  I   I93       1.0  0.02612  0.54886  0.57076  1.0000
  I   I94       1.0  0.52191  0.15771  0.80807  1.0000
  I   I95       1.0  0.68396  0.94537  0.73073  1.0000
  I   I96       1.0  0.50330  0.15034  0.08269  1.0000
  I   I97       1.0  0.49663  0.87529  0.31092  1.0000
  I   I98       1.0  0.62226  0.65656  0.29138  1.0000
  I   I99       1.0  0.03917  0.07120  0.22019  1.0000
  I   I100      1.0  0.28920  0.91516  0.43935  1.0000
  I   I101      1.0  0.21745  0.06726  0.51407  1.0000
  I   I102      1.0  0.13406  0.24274  0.26438  1.0000
  I   I103      1.0  0.94238  0.82667  0.22978  1.0000
  I   I104      1.0  0.09137  0.80257  0.30856  1.0000
  I   I105      1.0  0.88599  0.85301  0.60326  1.0000
  I   I106      1.0  0.91421  0.64148  0.05783  1.0000
  I   I107      1.0  0.30052  0.81420  0.89670  1.0000
  I   I108      1.0  0.96668  0.66716  0.76397  1.0000
  I   I109      1.0  0.26041  0.20843  0.22190  1.0000
  I   I110      1.0  0.35750  0.23472  0.39262  1.0000
  I   I111      1.0  0.39080  0.14449  0.64938  1.0000
  I   I112      1.0  0.28047  0.36260  0.31436  1.0000
  I   I113      1.0  0.20595  0.61386  0.11842  1.0000
  I   I114      1.0  0.22934  0.67333  0.33619  1.0000
  I   I115      1.0  0.50359  0.65975  0.67814  1.0000
  I   I116      1.0  0.50860  0.72741  0.64103  1.0000
  I   I117      1.0  0.60831  0.89600  0.83283  1.0000
  I   I118      1.0  0.43693  0.99057  0.71705  1.0000
  I   I119      1.0  0.46470  0.83392  0.83399  1.0000
  I   I120      1.0  0.72102  0.88402  0.15321  1.0000
  I   I121      1.0  0.48434  0.54050  0.65449  1.0000
  I   I122      1.0  0.27359  0.27583  0.91805  1.0000
  I   I123      1.0  0.42931  0.26280  0.99090  1.0000
  I   I124      1.0  0.72496  0.50243  0.80039  1.0000
  I   I125      1.0  0.40453  0.63757  0.24802  1.0000
  I   I126      1.0  0.69577  0.42154  0.93464  1.0000
  I   I127      1.0  0.91621  0.47123  0.96444  1.0000
  I   I128      1.0  0.91411  0.42626  0.22247  1.0000
  I   I129      1.0  0.75449  0.36045  0.62518  1.0000
  I   I130      1.0  0.77939  0.65898  0.63109  1.0000
  I   I131      1.0  0.91013  0.99251  0.85798  1.0000
  I   I132      1.0  0.70956  0.59489  0.13297  1.0000
  I   I133      1.0  0.54764  0.41324  0.02344  1.0000
  I   I134      1.0  0.64469  0.26956  0.15043  1.0000
  I   I135      1.0  0.55149  0.32843  0.45545  1.0000
  I   I136      1.0  0.16339  0.92441  0.33499  1.0000
  I   I137      1.0  0.97233  0.06945  0.94781  1.0000
  I   I138      1.0  0.77923  0.25006  0.55004  1.0000
  I   I139      1.0  0.08708  0.52238  0.70500  1.0000
  I   I140      1.0  0.86921  0.33060  0.99070  1.0000
  I   I141      1.0  0.04973  0.50563  0.46038  1.0000
  I   I142      1.0  0.65233  0.15307  0.77246  1.0000
  I   I143      1.0  0.69183  0.94961  0.55930  1.0000
  I   I144      1.0  0.57576  0.07820  0.08911  1.0000
  I   I145      1.0  0.57529  0.80614  0.38497  1.0000
  I   I146      1.0  0.94805  0.08119  0.34377  1.0000
  I   I147      1.0  0.49391  0.79634  0.21453  1.0000
  I   I148      1.0  0.32053  0.91833  0.56713  1.0000
  I   I149      1.0  0.10763  0.22631  0.50449  1.0000
  I   I150      1.0  0.03978  0.27550  0.87007  1.0000
  I   I151      1.0  0.02415  0.79828  0.27847  1.0000
  I   I152      1.0  0.94034  0.14245  0.59641  1.0000
  I   I153      1.0  0.88934  0.83028  0.46858  1.0000
  I   I154      1.0  0.37640  0.75901  0.04698  1.0000
  I   I155      1.0  0.92623  0.79901  0.91952  1.0000
  I   I156      1.0  0.91274  0.66014  0.87789  1.0000
  I   I157      1.0  0.28519  0.23937  0.10539  1.0000
  I   I158      1.0  0.33577  0.16700  0.55309  1.0000
  I   I159      1.0  0.37357  0.06703  0.18553  1.0000
  I   I160      1.0  0.32103  0.40254  0.38991  1.0000
  I   I161      1.0  0.16096  0.63188  0.23916  1.0000
  I   I162      1.0  0.32353  0.32115  0.42339  1.0000
  I   I163      1.0  0.55864  0.60958  0.79919  1.0000
  I   I164      1.0  0.75754  0.78451  0.82906  1.0000
  I   I165      1.0  0.20098  0.65700  0.67602  1.0000
  I   I166      1.0  0.45996  0.91790  0.80832  1.0000
  I   I167      1.0  0.84528  0.82037  0.12135  1.0000
  I   I168      1.0  0.47157  0.00828  0.60213  1.0000
  I   I169      1.0  0.23401  0.24619  0.84878  1.0000
  I   I170      1.0  0.31593  0.31997  0.94893  1.0000
  I   I171      1.0  0.51621  0.47405  0.62208  1.0000
  I   I172      1.0  0.77094  0.55580  0.81581  1.0000
  I   I173      1.0  0.67449  0.37141  0.03884  1.0000
  I   I174      1.0  0.65140  0.50913  0.96261  1.0000
  I   I175      1.0  0.97604  0.48541  0.19614  1.0000
  I   I176      1.0  0.85760  0.33078  0.72464  1.0000
  I   I177      1.0  0.97350  0.50849  0.88614  1.0000
  I   I178      1.0  0.87679  0.99338  0.97583  1.0000
  I   I179      1.0  0.72855  0.65692  0.98911  1.0000
  I   I180      1.0  0.75076  0.61577  0.51793  1.0000
  I   I181      1.0  0.69428  0.16375  0.24717  1.0000
  I   I182      1.0  0.61896  0.32867  0.29848  1.0000
  I   I183      1.0  0.48186  0.34974  0.82852  1.0000
  I   I184      1.0  0.96180  0.14352  0.91601  1.0000
  I   I185      1.0  0.71802  0.28321  0.66605  1.0000
  I   I186      1.0  0.20216  0.81147  0.16949  1.0000
  I   I187      1.0  0.77260  0.33738  0.07995  1.0000
  I   I188      1.0  0.09302  0.42204  0.48273  1.0000
  I   I189      1.0  0.02307  0.48425  0.57975  1.0000
  I   I190      1.0  0.60408  0.04071  0.50499  1.0000
  I   I191      1.0  0.56727  0.06869  0.29461  1.0000
  I   I192      1.0  0.61755  0.10636  0.81497  1.0000
  I   I193      1.0  0.66254  0.69649  0.38187  1.0000
  I   I194      1.0  0.02006  0.01960  0.29535  1.0000
  I   I195      1.0  0.42603  0.86819  0.29223  1.0000
  I   I196      1.0  0.17152  0.03250  0.54441  1.0000
  I   I197      1.0  0.14131  0.18991  0.37866  1.0000
  I   I198      1.0  0.07085  0.23042  0.98140  1.0000
  I   I199      1.0  0.07541  0.84084  0.15016  1.0000
  I   I200      1.0  0.95682  0.00068  0.69450  1.0000
  I   I201      1.0  0.87378  0.86705  0.32647  1.0000
  I   I202      1.0  0.34863  0.82877  0.97228  1.0000
  I   I203      1.0  0.92842  0.78424  0.75575  1.0000
  I   I204      1.0  0.99726  0.62879  0.07342  1.0000
  I   I205      1.0  0.28846  0.27749  0.30971  1.0000
  I   I206      1.0  0.31934  0.17032  0.69602  1.0000
  I   I207      1.0  0.31731  0.08538  0.05546  1.0000
  I   I208      1.0  0.12416  0.68280  0.96886  1.0000
  I   I209      1.0  0.24005  0.58994  0.34495  1.0000
  I   I210      1.0  0.27975  0.37180  0.51257  1.0000
  I   I211      1.0  0.46669  0.77128  0.74675  1.0000
  I   I212      1.0  0.76618  0.83574  0.71127  1.0000
  I   I213      1.0  0.22569  0.57811  0.63609  1.0000
  I   I214      1.0  0.41690  0.86536  0.69125  1.0000
  I   I215      1.0  0.77289  0.90320  0.08471  1.0000
  I   I216      1.0  0.53303  0.98766  0.71838  1.0000
  I   I217      1.0  0.26125  0.27657  0.73105  1.0000
  I   I218      1.0  0.36316  0.25662  0.01611  1.0000
  I   I219      1.0  0.46701  0.44842  0.69601  1.0000
  I   I220      1.0  0.38178  0.66424  0.10923  1.0000
  I   I221      1.0  0.62999  0.36749  0.93211  1.0000
  I   I222      1.0  0.73716  0.46574  0.93246  1.0000
  I   I223      1.0  0.89183  0.49477  0.18463  1.0000
  I   I224      1.0  0.82332  0.30620  0.61370  1.0000
  I   I225      1.0  0.90272  0.50669  0.80445  1.0000
  I   I226      1.0  0.90942  0.90148  0.98094  1.0000
  I   I227      1.0  0.79388  0.62853  0.91096  1.0000
  I   I228      1.0  0.83792  0.58838  0.49638  1.0000
  I   I229      1.0  0.70451  0.19700  0.13326  1.0000
  I   I230      1.0  0.59515  0.36872  0.42632  1.0000
  I   I231      1.0  0.52373  0.38902  0.87232  1.0000
  I   I232      1.0  0.99302  0.11237  0.05171  1.0000
  I   I233      1.0  0.73471  0.13332  0.64721  1.0000
  I   I234      1.0  0.21838  0.75346  0.31417  1.0000
  I   I235      1.0  0.77179  0.35493  0.22203  1.0000
  I   I236      1.0  0.01900  0.42476  0.52443  1.0000
  I   I237      1.0  0.09858  0.47371  0.59820  1.0000
  I   I238      1.0  0.60619  0.96811  0.55769  1.0000
  I   I239      1.0  0.63015  0.05073  0.18943  1.0000
  I   I240      1.0  0.66365  0.12416  0.92082  1.0000
  I   I241      1.0  0.62329  0.75202  0.30337  1.0000
  I   I242      1.0  0.02498  0.08024  0.37828  1.0000
  I   I243      1.0  0.47093  0.88363  0.16984  1.0000
  I   I244      1.0  0.21972  0.96039  0.51696  1.0000
  I   I245      1.0  0.16972  0.24014  0.41534  1.0000
  I   I246      1.0  0.11103  0.27044  0.94804  1.0000
  I   I247      1.0  0.09381  0.76649  0.18225  1.0000
  I   I248      1.0  0.98411  0.05178  0.54575  1.0000
  I   I249      1.0  0.94814  0.79497  0.35810  1.0000
  I   I250      1.0  0.29987  0.79331  0.02803  1.0000
  I   I251      1.0  0.86177  0.81129  0.85894  1.0000
  I   I252      1.0  0.95971  0.59476  0.95356  1.0000
  I   I253      1.0  0.35651  0.28815  0.25774  1.0000
  I   I254      1.0  0.27233  0.13773  0.68766  1.0000
  I   I255      1.0  0.39199  0.08342  0.04086  1.0000
  I   I256      1.0  0.15221  0.74147  0.98756  1.0000
  I   I257      1.0  0.16190  0.65288  0.37852  1.0000
  I   I258      1.0  0.17746  0.39142  0.31149  1.0000
  I   I259      1.0  0.44279  0.70809  0.76912  1.0000
  I   I260      1.0  0.73404  0.87044  0.83100  1.0000
  I   I261      1.0  0.20878  0.63020  0.82277  1.0000
  I   I262      1.0  0.39552  0.90512  0.82320  1.0000
  I   I263      1.0  0.77927  0.87638  0.25002  1.0000
  I   I264      1.0  0.54766  0.94145  0.59318  1.0000
  I   I265      1.0  0.31820  0.20102  0.84041  1.0000
  I   I266      1.0  0.36017  0.32662  0.05724  1.0000
  I   I267      1.0  0.41869  0.58507  0.56822  1.0000
  I   I268      1.0  0.45165  0.66712  0.08440  1.0000
  I   I269      1.0  0.71604  0.34742  0.90516  1.0000
  I   I270      1.0  0.71360  0.54409  0.93440  1.0000
  I   I271      1.0  0.93556  0.46621  0.32402  1.0000
  I   I272      1.0  0.80609  0.38859  0.62861  1.0000
  I   I273      1.0  0.88189  0.55531  0.92792  1.0000
  I   I274      1.0  0.95003  0.91523  0.85603  1.0000
  I   I275      1.0  0.72111  0.66801  0.14558  1.0000
  I   I276      1.0  0.81140  0.58371  0.64369  1.0000
  I   I277      1.0  0.69639  0.23884  0.25942  1.0000
  I   I278      1.0  0.63694  0.28373  0.44241  1.0000
  I   I279      1.0  0.51842  0.29920  0.93965  1.0000
  I   I280      1.0  0.02615  0.06475  0.86525  1.0000
  I   I281      1.0  0.73438  0.21435  0.56842  1.0000
  I   I282      1.0  0.24565  0.90290  0.29073  1.0000
  I   I283      1.0  0.79487  0.39029  0.03671  1.0000
  I   I284      1.0  0.03549  0.44984  0.37469  1.0000
  I   I285      1.0  0.05857  0.46068  0.71552  1.0000
  I   I286      1.0  0.62323  0.00718  0.65989  1.0000
  I   I287      1.0  0.52344  0.09963  0.18376  1.0000
  I   I288      1.0  0.57858  0.14003  0.91780  1.0000
  I   I289      1.0  0.57403  0.72948  0.26927  1.0000
  I   I290      1.0  0.90564  0.04363  0.32688  1.0000
  I   I291      1.0  0.03243  0.15216  0.35547  1.0000
  I   I292      1.0  0.19808  0.02325  0.40041  1.0000
  I   I293      1.0  0.03503  0.22302  0.44989  1.0000
  I   I294      1.0  0.03677  0.27932  0.72911  1.0000
  I   I295      1.0  0.02076  0.86749  0.26932  1.0000
  I   I296      1.0  0.95890  0.08909  0.68107  1.0000
  I   I297      1.0  0.82925  0.93126  0.56395  1.0000
  I   I298      1.0  0.24873  0.86582  0.08392  1.0000
  I   I299      1.0  0.29812  0.75663  0.78462  1.0000
  I   I300      1.0  0.94087  0.69898  0.97470  1.0000
  I   I301      1.0  0.35076  0.15443  0.13056  1.0000
  I   I302      1.0  0.42072  0.29762  0.30711  1.0000
  I   I303      1.0  0.24777  0.18348  0.55583  1.0000
  I   I304      1.0  0.22752  0.38638  0.19092  1.0000
  I   I305      1.0  0.16432  0.69447  0.26964  1.0000
  I   I306      1.0  0.10001  0.64866  0.42898  1.0000
  I   I307      1.0  0.52519  0.69944  0.78662  1.0000
  I   I308      1.0  0.62081  0.89479  0.67898  1.0000
  I   I309      1.0  0.24588  0.48976  0.71158  1.0000
  I   I310      1.0  0.49270  0.86240  0.70656  1.0000
  I   I311      1.0  0.79449  0.76355  0.01633  1.0000
  I   I312      1.0  0.72688  0.89888  0.35222  1.0000
  I   I313      1.0  0.41018  0.53169  0.66892  1.0000
  I   I314      1.0  0.32898  0.34259  0.77825  1.0000
  I   I315      1.0  0.39039  0.40963  0.01031  1.0000
  I   I316      1.0  0.69410  0.60915  0.86598  1.0000
  I   I317      1.0  0.52544  0.65122  0.12084  1.0000
  I   I318      1.0  0.58929  0.50298  0.85861  1.0000
  I   I319      1.0  0.95190  0.37259  0.85488  1.0000
  I   I320      1.0  0.00914  0.32811  0.23333  1.0000
  I   I321      1.0  0.84913  0.37219  0.83067  1.0000
  I   I322      1.0  0.81273  0.03984  0.88251  1.0000
  I   I323      1.0  0.77200  0.59585  0.05749  1.0000
  I   I324      1.0  0.77553  0.66845  0.49889  1.0000
  I   I325      1.0  0.66633  0.14881  0.08125  1.0000
  I   I326      1.0  0.54488  0.34395  0.32520  1.0000
  I   I327      1.0  0.56422  0.30147  0.82218  1.0000
  I   I328      1.0  0.04308  0.98477  0.88688  1.0000
  I   I329      1.0  0.74340  0.20052  0.70433  1.0000
  I   I330      1.0  0.25550  0.82735  0.26168  1.0000
  I   I331      1.0  0.18121  0.46124  0.72484  1.0000
  I   I332      1.0  0.77126  0.42016  0.18103  1.0000
  I   I333      1.0  0.95596  0.55535  0.58639  1.0000
  I   I334      1.0  0.56400  0.18412  0.73439  1.0000
  I   I335      1.0  0.68714  0.01701  0.72371  1.0000
  I   I336      1.0  0.47835  0.08427  0.07559  1.0000
  I   I337      1.0  0.51917  0.79285  0.36962  1.0000
  I   I338      1.0  0.95815  0.99077  0.21969  1.0000
  I   I339      1.0  0.04162  0.13404  0.20687  1.0000
  I   I340      1.0  0.28020  0.99491  0.48989  1.0000
  I   I341      1.0  0.08964  0.30212  0.35673  1.0000
  I   I342      1.0  0.07230  0.19892  0.82788  1.0000
  I   I343      1.0  0.93692  0.90141  0.21216  1.0000
  I   I344      1.0  0.87380  0.14381  0.66412  1.0000
  I   I345      1.0  0.81519  0.86730  0.52294  1.0000
  I   I346      1.0  0.31894  0.84166  0.13152  1.0000
  I   I347      1.0  0.23504  0.80460  0.85788  1.0000
  I   I348      1.0  0.96973  0.71696  0.85518  1.0000
  I   I349      1.0  0.30162  0.13090  0.17217  1.0000
  I   I350      1.0  0.44488  0.24819  0.17467  1.0000
  I   I351      1.0  0.32712  0.09984  0.58498  1.0000
  I   I352      1.0  0.19324  0.45445  0.25271  1.0000
  I   I353      1.0  0.19783  0.68994  0.11086  1.0000
  I   I354      1.0  0.10994  0.68739  0.56766  1.0000
  I   I355      1.0  0.59880  0.65128  0.73974  1.0000
  I   I356      1.0  0.68265  0.82931  0.83642  1.0000
  I   I357      1.0  0.30799  0.50592  0.65413  1.0000
  I   I358      1.0  0.48150  0.93368  0.61174  1.0000
  I   I359      1.0  0.85920  0.76668  0.98712  1.0000
  I   I360      1.0  0.67981  0.88653  0.26437  1.0000
  I   I361      1.0  0.47325  0.51269  0.77777  1.0000
  I   I362      1.0  0.32403  0.26475  0.79560  1.0000
  I   I363      1.0  0.39754  0.36541  0.12711  1.0000
  I   I364      1.0  0.70166  0.57202  0.73082  1.0000
  I   I365      1.0  0.51275  0.60329  0.02767  1.0000
  I   I366      1.0  0.64977  0.42528  0.84117  1.0000
  I   I367      1.0  0.87663  0.45120  0.85139  1.0000
  I   I368      1.0  0.94420  0.35818  0.14574  1.0000
  I   I369      1.0  0.86567  0.29128  0.84358  1.0000
  I   I370      1.0  0.84860  0.06604  0.98512  1.0000
  I   I371      1.0  0.66258  0.67086  0.05935  1.0000
  I   I372      1.0  0.85121  0.67475  0.51242  1.0000
  I   I373      1.0  0.69768  0.10065  0.16897  1.0000
  I   I374      1.0  0.55125  0.30467  0.17367  1.0000
  I   I375      1.0  0.56330  0.34174  0.95496  1.0000
  I   I376      1.0  0.08050  0.01874  0.96992  1.0000
  I   I377      1.0  0.80437  0.13125  0.67974  1.0000
  I   I378      1.0  0.18091  0.84950  0.30248  1.0000
  I   I379      1.0  0.14594  0.51703  0.61135  1.0000
  I   I380      1.0  0.78909  0.34510  0.92950  1.0000
  I   I381      1.0  0.98558  0.57362  0.44857  1.0000
  I   I382      1.0  0.51311  0.21693  0.88492  1.0000
  I   I383      1.0  0.75068  0.94838  0.66617  1.0000
  I   I384      1.0  0.53243  0.07800  0.96622  1.0000
