data_image0
_chemical_formula_structural       Ti96I384
_chemical_formula_sum              "Ti96 I384"
_cell_length_a       52.174
_cell_length_b       52.3296
_cell_length_c       25.2072
_cell_angle_alpha    88.7757
_cell_angle_beta     88.7757
_cell_angle_gamma    62.1586

_space_group_name_H-M_alt    "P 1"
_space_group_IT_number       1

loop_
  _space_group_symop_operation_xyz
  'x, y, z'

loop_
  _atom_site_type_symbol
  _atom_site_label
  _atom_site_symmetry_multiplicity
  _atom_site_fract_x
  _atom_site_fract_y
  _atom_site_fract_z
  _atom_site_occupancy
  Ti  Ti1       1.0  0.54400  0.81894  0.32419  1.0000
  Ti  Ti2       1.0  0.15309  0.91809  0.04261  1.0000
  Ti  Ti3       1.0  0.41105  0.91715  0.18319  1.0000
  Ti  Ti4       1.0  0.28477  0.04466  0.43468  1.0000
  Ti  Ti5       1.0  0.17522  0.36372  0.52827  1.0000
  Ti  Ti6       1.0  0.16762  0.16742  0.85408  1.0000
  Ti  Ti7       1.0  0.95713  0.76849  0.07468  1.0000
  Ti  Ti8       1.0  0.93112  0.01569  0.48726  1.0000
  Ti  Ti9       1.0  0.92202  0.75646  0.35629  1.0000
  Ti  Ti10      1.0  0.27588  0.77527  0.88301  1.0000
  Ti  Ti11      1.0  0.98052  0.72242  0.73817  1.0000
  Ti  Ti12      1.0  0.06865  0.81742  0.74771  1.0000
  Ti  Ti13      1.0  0.34153  0.16451  0.34014  1.0000
  Ti  Ti14      1.0  0.40185  0.06631  0.66719  1.0000
  Ti  Ti15      1.0  0.29896  0.15268  0.12053  1.0000
  Ti  Ti16      1.0  0.28436  0.56444  0.18868  1.0000
  Ti  Ti17      1.0  0.14785  0.65749  0.36615  1.0000
  Ti  Ti18      1.0  0.28610  0.42244  0.55423  1.0000
  Ti  Ti19      1.0  0.45184  0.61336  0.49722  1.0000
  Ti  Ti20      1.0  0.63801  0.77771  0.77703  1.0000
  Ti  Ti21      1.0  0.35562  0.56785  0.71439  1.0000
  Ti  Ti22      1.0  0.43112  0.93317  0.73610  1.0000
  Ti  Ti23      1.0  0.62570  0.85258  0.09422  1.0000
  Ti  Ti24      1.0  0.46820  0.78073  0.86382  1.0000
  Ti  Ti25      1.0  0.37398  0.28837  0.79413  1.0000
  Ti  Ti26      1.0  0.32396  0.34065  0.05862  1.0000
  Ti  Ti27      1.0  0.54314  0.47725  0.70523  1.0000
  Ti  Ti28      1.0  0.44720  0.50103  0.20620  1.0000
  Ti  Ti29      1.0  0.74078  0.45911  0.96294  1.0000
  Ti  Ti30      1.0  0.64406  0.58052  0.78605  1.0000
  Ti  Ti31      1.0  0.92689  0.51748  0.01396  1.0000
  Ti  Ti32      1.0  0.77072  0.44530  0.58792  1.0000
  Ti  Ti33      1.0  0.85295  0.49349  0.81000  1.0000
  Ti  Ti34      1.0  0.76061  0.03815  0.10486  1.0000
  Ti  Ti35      1.0  0.71281  0.63514  0.14348  1.0000
  Ti  Ti36      1.0  0.81623  0.59911  0.49627  1.0000
  Ti  Ti37      1.0  0.69801  0.22473  0.26127  1.0000
  Ti  Ti38      1.0  0.70935  0.33585  0.21122  1.0000
  Ti  Ti39      1.0  0.56422  0.33446  0.88906  1.0000
  Ti  Ti40      1.0  0.85031  0.28087  0.95568  1.0000
  Ti  Ti41      1.0  0.75948  0.28792  0.56700  1.0000
  Ti  Ti42      1.0  0.28722  0.80790  0.33737  1.0000
  Ti  Ti43      1.0  0.80826  0.43578  0.29489  1.0000
  Ti  Ti44      1.0  0.00035  0.55274  0.53608  1.0000
  Ti  Ti45      1.0  0.05779  0.50440  0.77382  1.0000
  Ti  Ti46      1.0  0.69376  0.92666  0.60155  1.0000
  Ti  Ti47      1.0  0.60732  0.03505  0.38256  1.0000
  Ti  Ti48      1.0  0.52754  0.17775  0.85609  1.0000
  Ti  Ti49      1.0  0.47431  0.84644  0.29293  1.0000
  Ti  Ti50      1.0  0.10737  0.89721  0.15114  1.0000
  Ti  Ti51      1.0  0.13840  0.01564  0.01546  1.0000
  Ti  Ti52      1.0  0.24093  0.99831  0.49597  1.0000
  Ti  Ti53      1.0  0.19342  0.28119  0.51184  1.0000
  Ti  Ti54      1.0  0.15008  0.25081  0.88738  1.0000
  Ti  Ti55      1.0  0.91280  0.78667  0.18900  1.0000
  Ti  Ti56      1.0  0.93225  0.07451  0.48632  1.0000
  Ti  Ti57      1.0  0.88996  0.84794  0.37120  1.0000
  Ti  Ti58      1.0  0.22605  0.78043  0.78072  1.0000
  Ti  Ti59      1.0  0.32636  0.72598  0.01175  1.0000
  Ti  Ti60      1.0  0.05559  0.73406  0.71999  1.0000
  Ti  Ti61      1.0  0.36547  0.09838  0.20020  1.0000
  Ti  Ti62      1.0  0.35001  0.21898  0.38482  1.0000
  Ti  Ti63      1.0  0.32525  0.14349  0.71336  1.0000
  Ti  Ti64      1.0  0.25332  0.48232  0.47195  1.0000
  Ti  Ti65      1.0  0.19975  0.60873  0.23465  1.0000
  Ti  Ti66      1.0  0.08954  0.63577  0.46012  1.0000
  Ti  Ti67      1.0  0.41985  0.62888  0.61685  1.0000
  Ti  Ti68      1.0  0.71438  0.71470  0.85169  1.0000
  Ti  Ti69      1.0  0.28616  0.61484  0.65415  1.0000
  Ti  Ti70      1.0  0.44635  0.84695  0.75400  1.0000
  Ti  Ti71      1.0  0.66327  0.87440  0.21964  1.0000
  Ti  Ti72      1.0  0.66834  0.87127  0.94689  1.0000
  Ti  Ti73      1.0  0.55985  0.42364  0.57810  1.0000
  Ti  Ti74      1.0  0.28915  0.32719  0.90270  1.0000
  Ti  Ti75      1.0  0.27345  0.38790  0.19139  1.0000
  Ti  Ti76      1.0  0.58892  0.63609  0.67931  1.0000
  Ti  Ti77      1.0  0.51259  0.49155  0.25011  1.0000
  Ti  Ti78      1.0  0.68636  0.48967  0.83179  1.0000
  Ti  Ti79      1.0  0.91692  0.45301  0.93386  1.0000
  Ti  Ti80      1.0  0.98662  0.52087  0.10057  1.0000
  Ti  Ti81      1.0  0.84019  0.44422  0.65438  1.0000
  Ti  Ti82      1.0  0.84416  0.96099  0.06930  1.0000
  Ti  Ti83      1.0  0.77395  0.60336  0.17648  1.0000
  Ti  Ti84      1.0  0.74131  0.61451  0.47841  1.0000
  Ti  Ti85      1.0  0.65528  0.18264  0.26793  1.0000
  Ti  Ti86      1.0  0.74691  0.25353  0.16807  1.0000
  Ti  Ti87      1.0  0.58136  0.39761  0.94450  1.0000
  Ti  Ti88      1.0  0.90993  0.22963  0.95192  1.0000
  Ti  Ti89      1.0  0.72521  0.30776  0.70068  1.0000
  Ti  Ti90      1.0  0.22378  0.80616  0.32589  1.0000
  Ti  Ti91      1.0  0.13470  0.52233  0.78756  1.0000
  Ti  Ti92      1.0  0.84222  0.34882  0.31993  1.0000
  Ti  Ti93      1.0  0.98569  0.56495  0.70878  1.0000
  Ti  Ti94      1.0  0.54493  0.10112  0.85097  1.0000
  Ti  Ti95      1.0  0.60850  0.98189  0.52735  1.0000
  Ti  Ti96      1.0  0.55113  0.05866  0.23199  1.0000
  I   I1        1.0  0.05318  0.91093  0.11622  1.0000
  I   I2        1.0  0.19831  0.88301  0.98853  1.0000
  I   I3        1.0  0.43011  0.83893  0.32041  1.0000
  I   I4        1.0  0.24304  0.23645  0.52212  1.0000
  I   I5        1.0  0.20160  0.20128  0.87031  1.0000
  I   I6        1.0  0.19018  0.12495  0.92162  1.0000
  I   I7        1.0  0.88885  0.04964  0.55782  1.0000
  I   I8        1.0  0.95285  0.96748  0.55386  1.0000
  I   I9        1.0  0.93177  0.79702  0.28877  1.0000
  I   I10       1.0  0.27302  0.76679  0.00157  1.0000
  I   I11       1.0  0.08194  0.67830  0.74143  1.0000
  I   I12       1.0  0.24195  0.73631  0.72014  1.0000
  I   I13       1.0  0.34825  0.19743  0.26848  1.0000
  I   I14       1.0  0.38429  0.12060  0.72099  1.0000
  I   I15       1.0  0.32558  0.09085  0.13990  1.0000
  I   I16       1.0  0.22907  0.54918  0.22105  1.0000
  I   I17       1.0  0.09185  0.67056  0.37058  1.0000
  I   I18       1.0  0.30884  0.45896  0.52778  1.0000
  I   I19       1.0  0.72111  0.66737  0.81605  1.0000
  I   I20       1.0  0.26604  0.66013  0.58293  1.0000
  I   I21       1.0  0.35909  0.56417  0.82402  1.0000
  I   I22       1.0  0.63492  0.88518  0.30287  1.0000
  I   I23       1.0  0.56910  0.86946  0.10597  1.0000
  I   I24       1.0  0.49102  0.78790  0.75989  1.0000
  I   I25       1.0  0.27077  0.29496  0.85512  1.0000
  I   I26       1.0  0.27188  0.39295  0.07546  1.0000
  I   I27       1.0  0.50293  0.51754  0.65482  1.0000
  I   I28       1.0  0.47767  0.46760  0.29791  1.0000
  I   I29       1.0  0.66720  0.45817  0.89487  1.0000
  I   I30       1.0  0.61965  0.57210  0.69197  1.0000
  I   I31       1.0  0.98491  0.47293  0.04368  1.0000
  I   I32       1.0  0.85433  0.44743  0.55182  1.0000
  I   I33       1.0  0.91120  0.44028  0.83014  1.0000
  I   I34       1.0  0.68196  0.68460  0.09615  1.0000
  I   I35       1.0  0.75744  0.57734  0.40463  1.0000
  I   I36       1.0  0.88423  0.94638  0.14190  1.0000
  I   I37       1.0  0.68560  0.27761  0.19896  1.0000
  I   I38       1.0  0.59595  0.38829  0.04375  1.0000
  I   I39       1.0  0.60334  0.19249  0.24884  1.0000
  I   I40       1.0  0.69335  0.36280  0.67754  1.0000
  I   I41       1.0  0.22020  0.79249  0.22851  1.0000
  I   I42       1.0  0.86259  0.22840  0.00689  1.0000
  I   I43       1.0  0.81491  0.32633  0.27333  1.0000
  I   I44       1.0  0.96163  0.55462  0.61051  1.0000
  I   I45       1.0  0.03239  0.49681  0.85675  1.0000
  I   I46       1.0  0.58373  0.00579  0.61914  1.0000
  I   I47       1.0  0.55186  0.03678  0.35439  1.0000
  I   I48       1.0  0.51286  0.08540  0.79165  1.0000
  I   I49       1.0  0.50689  0.87356  0.25651  1.0000
  I   I50       1.0  0.17146  0.88601  0.13158  1.0000
  I   I51       1.0  0.09969  0.03088  0.09346  1.0000
  I   I52       1.0  0.25951  0.08262  0.51618  1.0000
  I   I53       1.0  0.13869  0.33950  0.54997  1.0000
  I   I54       1.0  0.14295  0.25795  0.78215  1.0000
  I   I55       1.0  0.90937  0.75246  0.10936  1.0000
  I   I56       1.0  0.96326  0.10136  0.46363  1.0000
  I   I57       1.0  0.86276  0.80970  0.36014  1.0000
  I   I58       1.0  0.29903  0.80850  0.89715  1.0000
  I   I59       1.0  0.30629  0.72347  0.11339  1.0000
  I   I60       1.0  0.02587  0.80038  0.71802  1.0000
  I   I61       1.0  0.38255  0.11703  0.28520  1.0000
  I   I62       1.0  0.40591  0.20244  0.39121  1.0000
  I   I63       1.0  0.34973  0.07847  0.71065  1.0000
  I   I64       1.0  0.30731  0.59364  0.14812  1.0000
  I   I65       1.0  0.16589  0.66570  0.26453  1.0000
  I   I66       1.0  0.03927  0.64623  0.43114  1.0000
  I   I67       1.0  0.47053  0.60952  0.66459  1.0000
  I   I68       1.0  0.60527  0.81335  0.84774  1.0000
  I   I69       1.0  0.33159  0.62308  0.73422  1.0000
  I   I70       1.0  0.40444  0.89884  0.80272  1.0000
  I   I71       1.0  0.65733  0.82965  0.17949  1.0000
  I   I72       1.0  0.66370  0.92139  0.95891  1.0000
  I   I73       1.0  0.58061  0.46292  0.59928  1.0000
  I   I74       1.0  0.33137  0.35014  0.95596  1.0000
  I   I75       1.0  0.26069  0.38787  0.29213  1.0000
  I   I76       1.0  0.39887  0.51632  0.26203  1.0000
  I   I77       1.0  0.51968  0.46343  0.16015  1.0000
  I   I78       1.0  0.69370  0.52692  0.76399  1.0000
  I   I79       1.0  0.90715  0.48031  0.03888  1.0000
  I   I80       1.0  0.97353  0.57116  0.12800  1.0000
  I   I81       1.0  0.84052  0.44812  0.79438  1.0000
  I   I82       1.0  0.73415  0.05000  0.01222  1.0000
  I   I83       1.0  0.67525  0.63428  0.21074  1.0000
  I   I84       1.0  0.70746  0.65052  0.41152  1.0000
  I   I85       1.0  0.67310  0.21290  0.17664  1.0000
  I   I86       1.0  0.80658  0.22480  0.16591  1.0000
  I   I87       1.0  0.61930  0.30055  0.87946  1.0000
  I   I88       1.0  0.84554  0.33034  0.90119  1.0000
  I   I89       1.0  0.81145  0.27473  0.51643  1.0000
  I   I90       1.0  0.30403  0.84341  0.36926  1.0000
  I   I91       1.0  0.17431  0.51977  0.72142  1.0000
  I   I92       1.0  0.78100  0.40317  0.34631  1.0000
  I   I93       1.0  0.01249  0.57424  0.78347  1.0000
  I   I94       1.0  0.55832  0.05866  0.92168  1.0000
  I   I95       1.0  0.62943  0.97687  0.42518  1.0000
  I   I96       1.0  0.56664  0.06381  0.13620  1.0000
  I   I97       1.0  0.45397  0.86035  0.15802  1.0000
  I   I98       1.0  0.57223  0.83255  0.39093  1.0000
  I   I99       1.0  0.17486  0.96300  0.06680  1.0000
  I   I100      1.0  0.25602  0.94820  0.45045  1.0000
  I   I101      1.0  0.33865  0.02985  0.45135  1.0000
  I   I102      1.0  0.16765  0.39669  0.62040  1.0000
  I   I103      1.0  0.90302  0.74520  0.26073  1.0000
  I   I104      1.0  0.99802  0.78149  0.05067  1.0000
  I   I105      1.0  0.85780  0.87282  0.45909  1.0000
  I   I106      1.0  0.02985  0.87190  0.74765  1.0000
  I   I107      1.0  0.32727  0.72589  0.89808  1.0000
  I   I108      1.0  0.01366  0.73121  0.65015  1.0000
  I   I109      1.0  0.33504  0.07708  0.26827  1.0000
  I   I110      1.0  0.37618  0.15295  0.42807  1.0000
  I   I111      1.0  0.45436  0.03324  0.70559  1.0000
  I   I112      1.0  0.22758  0.52717  0.53740  1.0000
  I   I113      1.0  0.25993  0.59845  0.27554  1.0000
  I   I114      1.0  0.13927  0.70883  0.38796  1.0000
  I   I115      1.0  0.41563  0.58044  0.64466  1.0000
  I   I116      1.0  0.46660  0.63606  0.41704  1.0000
  I   I117      1.0  0.63733  0.81661  0.70942  1.0000
  I   I118      1.0  0.41148  0.82555  0.75620  1.0000
  I   I119      1.0  0.43009  0.97355  0.79077  1.0000
  I   I120      1.0  0.64421  0.80140  0.04364  1.0000
  I   I121      1.0  0.51855  0.47856  0.79421  1.0000
  I   I122      1.0  0.34923  0.27732  0.89922  1.0000
  I   I123      1.0  0.35552  0.36371  0.10282  1.0000
  I   I124      1.0  0.65315  0.61780  0.70705  1.0000
  I   I125      1.0  0.41809  0.53834  0.13731  1.0000
  I   I126      1.0  0.69067  0.50958  0.92937  1.0000
  I   I127      1.0  0.85867  0.49141  0.92126  1.0000
  I   I128      1.0  0.93072  0.52600  0.12287  1.0000
  I   I129      1.0  0.77791  0.47593  0.66760  1.0000
  I   I130      1.0  0.78544  0.57486  0.55056  1.0000
  I   I131      1.0  0.79530  0.99476  0.16757  1.0000
  I   I132      1.0  0.83015  0.58702  0.19545  1.0000
  I   I133      1.0  0.53552  0.44831  0.95621  1.0000
  I   I134      1.0  0.75013  0.20502  0.22028  1.0000
  I   I135      1.0  0.65888  0.35880  0.15997  1.0000
  I   I136      1.0  0.34118  0.75961  0.35796  1.0000
  I   I137      1.0  0.93583  0.18095  0.89781  1.0000
  I   I138      1.0  0.77116  0.31562  0.64447  1.0000
  I   I139      1.0  0.08646  0.52448  0.86149  1.0000
  I   I140      1.0  0.85147  0.31534  0.40489  1.0000
  I   I141      1.0  0.01659  0.57657  0.61735  1.0000
  I   I142      1.0  0.53108  0.14543  0.77668  1.0000
  I   I143      1.0  0.66531  0.97690  0.54885  1.0000
  I   I144      1.0  0.60635  0.02420  0.26721  1.0000
  I   I145      1.0  0.50733  0.79516  0.24304  1.0000
  I   I146      1.0  0.11942  0.89708  0.01743  1.0000
  I   I147      1.0  0.36683  0.90881  0.19211  1.0000
  I   I148      1.0  0.20034  0.99549  0.55149  1.0000
  I   I149      1.0  0.16345  0.25605  0.54622  1.0000
  I   I150      1.0  0.13831  0.20298  0.93981  1.0000
  I   I151      1.0  0.97058  0.75577  0.18801  1.0000
  I   I152      1.0  0.96617  0.02126  0.41995  1.0000
  I   I153      1.0  0.91975  0.79141  0.44323  1.0000
  I   I154      1.0  0.21775  0.81376  0.86950  1.0000
  I   I155      1.0  0.98400  0.68438  0.80874  1.0000
  I   I156      1.0  0.08956  0.72917  0.63902  1.0000
  I   I157      1.0  0.31198  0.15363  0.22477  1.0000
  I   I158      1.0  0.39990  0.02136  0.62219  1.0000
  I   I159      1.0  0.29055  0.13768  0.02252  1.0000
  I   I160      1.0  0.29299  0.42051  0.65702  1.0000
  I   I161      1.0  0.16199  0.60107  0.31152  1.0000
  I   I162      1.0  0.29244  0.36979  0.54160  1.0000
  I   I163      1.0  0.38375  0.67016  0.68241  1.0000
  I   I164      1.0  0.71388  0.70487  0.94958  1.0000
  I   I165      1.0  0.30994  0.55980  0.72271  1.0000
  I   I166      1.0  0.43539  0.86918  0.65434  1.0000
  I   I167      1.0  0.60853  0.90788  0.17105  1.0000
  I   I168      1.0  0.42116  0.78611  0.91089  1.0000
  I   I169      1.0  0.39752  0.23634  0.75966  1.0000
  I   I170      1.0  0.28772  0.31341  0.00718  1.0000
  I   I171      1.0  0.58509  0.41822  0.67375  1.0000
  I   I172      1.0  0.57488  0.68460  0.72181  1.0000
  I   I173      1.0  0.72026  0.48036  0.06359  1.0000
  I   I174      1.0  0.62840  0.54632  0.84306  1.0000
  I   I175      1.0  0.93873  0.49354  0.91399  1.0000
  I   I176      1.0  0.79166  0.42901  0.49523  1.0000
  I   I177      1.0  0.84479  0.48964  0.68532  1.0000
  I   I178      1.0  0.81070  0.01824  0.02932  1.0000
  I   I179      1.0  0.73831  0.65663  0.23030  1.0000
  I   I180      1.0  0.82414  0.62598  0.41770  1.0000
  I   I181      1.0  0.64256  0.23631  0.31172  1.0000
  I   I182      1.0  0.74579  0.28741  0.26567  1.0000
  I   I183      1.0  0.54875  0.30419  0.95399  1.0000
  I   I184      1.0  0.86185  0.25588  0.86666  1.0000
  I   I185      1.0  0.76947  0.23324  0.54259  1.0000
  I   I186      1.0  0.16996  0.82229  0.34753  1.0000
  I   I187      1.0  0.84454  0.38500  0.23318  1.0000
  I   I188      1.0  0.03001  0.49680  0.54365  1.0000
  I   I189      1.0  0.02859  0.50542  0.69432  1.0000
  I   I190      1.0  0.69898  0.88408  0.66108  1.0000
  I   I191      1.0  0.59734  0.04310  0.47949  1.0000
  I   I192      1.0  0.55913  0.20740  0.85960  1.0000
  I   I193      1.0  0.57857  0.80558  0.24292  1.0000
  I   I194      1.0  0.10461  0.94880  0.10779  1.0000
  I   I195      1.0  0.39004  0.97445  0.21185  1.0000
  I   I196      1.0  0.26604  0.07410  0.35142  1.0000
  I   I197      1.0  0.13730  0.40109  0.46938  1.0000
  I   I198      1.0  0.19642  0.14257  0.77299  1.0000
  I   I199      1.0  0.92052  0.79157  0.00156  1.0000
  I   I200      1.0  0.91620  0.10902  0.56993  1.0000
  I   I201      1.0  0.89988  0.72848  0.42335  1.0000
  I   I202      1.0  0.28409  0.76913  0.78148  1.0000
  I   I203      1.0  0.93517  0.76282  0.78852  1.0000
  I   I204      1.0  0.09812  0.81878  0.66297  1.0000
  I   I205      1.0  0.30568  0.14389  0.36310  1.0000
  I   I206      1.0  0.40381  0.09305  0.58339  1.0000
  I   I207      1.0  0.24873  0.16470  0.15840  1.0000
  I   I208      1.0  0.32883  0.51534  0.20344  1.0000
  I   I209      1.0  0.20328  0.63536  0.39445  1.0000
  I   I210      1.0  0.22679  0.44606  0.53840  1.0000
  I   I211      1.0  0.43770  0.58897  0.42064  1.0000
  I   I212      1.0  0.76951  0.70279  0.86145  1.0000
  I   I213      1.0  0.33946  0.57887  0.60472  1.0000
  I   I214      1.0  0.37442  0.96473  0.72237  1.0000
  I   I215      1.0  0.68297  0.85236  0.05123  1.0000
  I   I216      1.0  0.47329  0.72993  0.83193  1.0000
  I   I217      1.0  0.38288  0.30668  0.70106  1.0000
  I   I218      1.0  0.36255  0.28737  0.06534  1.0000
  I   I219      1.0  0.60007  0.39418  0.51717  1.0000
  I   I220      1.0  0.45016  0.45597  0.16264  1.0000
  I   I221      1.0  0.73452  0.41322  0.98673  1.0000
  I   I222      1.0  0.66488  0.59745  0.86694  1.0000
  I   I223      1.0  0.87685  0.55888  0.99362  1.0000
  I   I224      1.0  0.74805  0.41200  0.59711  1.0000
  I   I225      1.0  0.80048  0.53246  0.82282  1.0000
  I   I226      1.0  0.77702  0.07169  0.15486  1.0000
  I   I227      1.0  0.72007  0.59087  0.07930  1.0000
  I   I228      1.0  0.84124  0.61011  0.57316  1.0000
  I   I229      1.0  0.71690  0.17589  0.31805  1.0000
  I   I230      1.0  0.72581  0.37509  0.19258  1.0000
  I   I231      1.0  0.54889  0.36977  0.97766  1.0000
  I   I232      1.0  0.79690  0.30308  0.98282  1.0000
  I   I233      1.0  0.75415  0.29467  0.79585  1.0000
  I   I234      1.0  0.26868  0.75382  0.34528  1.0000
  I   I235      1.0  0.76498  0.47656  0.35395  1.0000
  I   I236      1.0  0.96875  0.56552  0.45384  1.0000
  I   I237      1.0  0.09272  0.52380  0.71679  1.0000
  I   I238      1.0  0.74225  0.90183  0.55338  1.0000
  I   I239      1.0  0.66246  0.02562  0.38562  1.0000
  I   I240      1.0  0.48723  0.22056  0.81242  1.0000
  I   I241      1.0  0.55799  0.76587  0.35415  1.0000
  I   I242      1.0  0.13443  0.96736  0.96386  1.0000
  I   I243      1.0  0.41517  0.93213  0.08280  1.0000
  I   I244      1.0  0.20803  0.05348  0.45768  1.0000
  I   I245      1.0  0.21360  0.36436  0.46470  1.0000
  I   I246      1.0  0.12945  0.15343  0.81459  1.0000
  I   I247      1.0  0.98276  0.71581  0.04024  1.0000
  I   I248      1.0  0.96509  0.03076  0.56677  1.0000
  I   I249      1.0  0.97657  0.72352  0.35992  1.0000
  I   I250      1.0  0.24903  0.73809  0.89112  1.0000
  I   I251      1.0  0.94632  0.72202  0.66554  1.0000
  I   I252      1.0  0.08864  0.82375  0.83722  1.0000
  I   I253      1.0  0.29482  0.21869  0.37893  1.0000
  I   I254      1.0  0.32107  0.18730  0.66414  1.0000
  I   I255      1.0  0.29500  0.20339  0.10683  1.0000
  I   I256      1.0  0.27955  0.53938  0.09887  1.0000
  I   I257      1.0  0.13999  0.64635  0.47551  1.0000
  I   I258      1.0  0.28490  0.50263  0.42186  1.0000
  I   I259      1.0  0.49883  0.56512  0.51199  1.0000
  I   I260      1.0  0.69876  0.76631  0.79626  1.0000
  I   I261      1.0  0.40002  0.52223  0.67959  1.0000
  I   I262      1.0  0.45658  0.93408  0.64474  1.0000
  I   I263      1.0  0.61271  0.88484  0.00131  1.0000
  I   I264      1.0  0.50501  0.75672  0.94091  1.0000
  I   I265      1.0  0.41051  0.29607  0.84639  1.0000
  I   I266      1.0  0.30160  0.33129  0.17090  1.0000
  I   I267      1.0  0.56872  0.50408  0.74546  1.0000
  I   I268      1.0  0.46208  0.54185  0.26467  1.0000
  I   I269      1.0  0.79098  0.45036  0.98009  1.0000
  I   I270      1.0  0.58900  0.62001  0.80767  1.0000
  I   I271      1.0  0.96151  0.54050  0.97849  1.0000
  I   I272      1.0  0.72053  0.49231  0.56200  1.0000
  I   I273      1.0  0.89566  0.50424  0.78389  1.0000
  I   I274      1.0  0.71399  0.04144  0.15086  1.0000
  I   I275      1.0  0.75736  0.57598  0.25227  1.0000
  I   I276      1.0  0.84593  0.54581  0.45464  1.0000
  I   I277      1.0  0.70281  0.25552  0.34947  1.0000
  I   I278      1.0  0.67198  0.36039  0.28874  1.0000
  I   I279      1.0  0.55356  0.31865  0.79033  1.0000
  I   I280      1.0  0.92725  0.26517  0.91472  1.0000
  I   I281      1.0  0.71146  0.28265  0.62030  1.0000
  I   I282      1.0  0.25168  0.81090  0.43381  1.0000
  I   I283      1.0  0.82149  0.47057  0.23839  1.0000
  I   I284      1.0  0.03833  0.56845  0.48925  1.0000
  I   I285      1.0  0.09863  0.45265  0.75698  1.0000
  I   I286      1.0  0.69940  0.95926  0.67790  1.0000
  I   I287      1.0  0.58189  0.08735  0.34212  1.0000
  I   I288      1.0  0.50015  0.15464  0.91960  1.0000
  I   I289      1.0  0.49053  0.84416  0.39143  1.0000
  I   I290      1.0  0.13506  0.84241  0.14570  1.0000
  I   I291      1.0  0.12392  0.04188  0.92567  1.0000
  I   I292      1.0  0.28559  0.99660  0.41082  1.0000
  I   I293      1.0  0.18407  0.29685  0.41333  1.0000
  I   I294      1.0  0.17952  0.27962  0.90888  1.0000
  I   I295      1.0  0.91479  0.83022  0.14833  1.0000
  I   I296      1.0  0.89033  0.10005  0.41424  1.0000
  I   I297      1.0  0.92854  0.86664  0.36266  1.0000
  I   I298      1.0  0.17134  0.78643  0.80851  1.0000
  I   I299      1.0  0.35973  0.75111  0.02699  1.0000
  I   I300      1.0  0.09080  0.76009  0.77871  1.0000
  I   I301      1.0  0.36384  0.12962  0.11492  1.0000
  I   I302      1.0  0.34074  0.22630  0.48950  1.0000
  I   I303      1.0  0.27581  0.15397  0.67795  1.0000
  I   I304      1.0  0.21294  0.50056  0.40306  1.0000
  I   I305      1.0  0.15648  0.61357  0.17619  1.0000
  I   I306      1.0  0.08179  0.64146  0.56652  1.0000
  I   I307      1.0  0.38823  0.63790  0.52885  1.0000
  I   I308      1.0  0.59806  0.77002  0.73041  1.0000
  I   I309      1.0  0.25565  0.59362  0.60618  1.0000
  I   I310      1.0  0.47839  0.87669  0.76569  1.0000
  I   I311      1.0  0.71716  0.85113  0.25281  1.0000
  I   I312      1.0  0.64876  0.85970  0.86070  1.0000
  I   I313      1.0  0.51915  0.45332  0.50790  1.0000
  I   I314      1.0  0.23751  0.37252  0.91818  1.0000
  I   I315      1.0  0.22261  0.43186  0.16570  1.0000
  I   I316      1.0  0.53607  0.64924  0.65689  1.0000
  I   I317      1.0  0.56339  0.45224  0.29110  1.0000
  I   I318      1.0  0.67398  0.46880  0.74810  1.0000
  I   I319      1.0  0.97543  0.42034  0.95950  1.0000
  I   I320      1.0  0.03942  0.51313  0.06985  1.0000
  I   I321      1.0  0.89671  0.41273  0.66982  1.0000
  I   I322      1.0  0.81669  0.93066  0.08247  1.0000
  I   I323      1.0  0.75992  0.64226  0.09486  1.0000
  I   I324      1.0  0.75509  0.65073  0.53360  1.0000
  I   I325      1.0  0.68096  0.13590  0.21149  1.0000
  I   I326      1.0  0.73687  0.30380  0.11508  1.0000
  I   I327      1.0  0.56913  0.38366  0.84108  1.0000
  I   I328      1.0  0.94381  0.20036  0.03893  1.0000
  I   I329      1.0  0.72249  0.32500  0.50511  1.0000
  I   I330      1.0  0.23181  0.84889  0.30046  1.0000
  I   I331      1.0  0.16559  0.47094  0.81889  1.0000
  I   I332      1.0  0.85866  0.41115  0.35207  1.0000
  I   I333      1.0  0.95043  0.54590  0.76458  1.0000
  I   I334      1.0  0.57516  0.12452  0.90659  1.0000
  I   I335      1.0  0.56254  0.97491  0.50499  1.0000
  I   I336      1.0  0.50694  0.11056  0.23333  1.0000
  I   I337      1.0  0.43111  0.90553  0.28397  1.0000
  I   I338      1.0  0.10285  0.90896  0.25009  1.0000
  I   I339      1.0  0.16220  0.04696  0.04939  1.0000
  I   I340      1.0  0.27447  0.99222  0.57524  1.0000
  I   I341      1.0  0.21589  0.30790  0.58097  1.0000
  I   I342      1.0  0.10903  0.28907  0.95225  1.0000
  I   I343      1.0  0.85321  0.81400  0.19617  1.0000
  I   I344      1.0  0.90014  0.00459  0.42177  1.0000
  I   I345      1.0  0.84756  0.88095  0.30636  1.0000
  I   I346      1.0  0.20986  0.81824  0.70466  1.0000
  I   I347      1.0  0.36210  0.66820  0.02611  1.0000
  I   I348      1.0  0.01684  0.73210  0.80551  1.0000
  I   I349      1.0  0.41812  0.05327  0.18776  1.0000
  I   I350      1.0  0.33784  0.27128  0.35478  1.0000
  I   I351      1.0  0.32042  0.15796  0.81222  1.0000
  I   I352      1.0  0.28421  0.42340  0.42911  1.0000
  I   I353      1.0  0.22517  0.62763  0.15699  1.0000
  I   I354      1.0  0.11805  0.57812  0.44280  1.0000
  I   I355      1.0  0.43176  0.66853  0.55236  1.0000
  I   I356      1.0  0.65144  0.73325  0.86493  1.0000
  I   I357      1.0  0.24328  0.64323  0.71086  1.0000
  I   I358      1.0  0.46774  0.83441  0.87787  1.0000
  I   I359      1.0  0.66457  0.92757  0.20459  1.0000
  I   I360      1.0  0.72386  0.85236  0.92451  1.0000
  I   I361      1.0  0.52657  0.39909  0.60059  1.0000
  I   I362      1.0  0.31654  0.33475  0.80046  1.0000
  I   I363      1.0  0.29769  0.42132  0.20250  1.0000
  I   I364      1.0  0.60897  0.64222  0.58279  1.0000
  I   I365      1.0  0.53316  0.52532  0.20755  1.0000
  I   I366      1.0  0.74534  0.45551  0.85528  1.0000
  I   I367      1.0  0.90841  0.41232  0.98527  1.0000
  I   I368      1.0  0.00946  0.49330  0.19419  1.0000
  I   I369      1.0  0.82327  0.40309  0.63944  1.0000
  I   I370      1.0  0.87062  0.94300  0.98608  1.0000
  I   I371      1.0  0.80377  0.55894  0.11154  1.0000
  I   I372      1.0  0.70843  0.60470  0.54691  1.0000
  I   I373      1.0  0.65490  0.16295  0.35787  1.0000
  I   I374      1.0  0.75080  0.23687  0.06833  1.0000
  I   I375      1.0  0.62411  0.40652  0.91167  1.0000
  I   I376      1.0  0.88443  0.27892  0.04029  1.0000
  I   I377      1.0  0.68054  0.30630  0.74991  1.0000
  I   I378      1.0  0.30650  0.78293  0.24137  1.0000
  I   I379      1.0  0.13560  0.56435  0.84376  1.0000
  I   I380      1.0  0.89711  0.31258  0.28838  1.0000
  I   I381      1.0  0.95283  0.61999  0.69819  1.0000
  I   I382      1.0  0.59287  0.06338  0.79344  1.0000
  I   I383      1.0  0.64127  0.92607  0.56232  1.0000
  I   I384      1.0  0.52782  0.02503  0.22906  1.0000
