data_image0
_chemical_formula_structural       Ti96I384
_chemical_formula_sum              "Ti96 I384"
_cell_length_a       66.1636
_cell_length_b       65.9883
_cell_length_c       32.2514
_cell_angle_alpha    88.7757
_cell_angle_beta     88.7757
_cell_angle_gamma    62.1586

_space_group_name_H-M_alt    "P 1"
_space_group_IT_number       1

loop_
  _space_group_symop_operation_xyz
  'x, y, z'

loop_
  _atom_site_type_symbol
  _atom_site_label
  _atom_site_symmetry_multiplicity
  _atom_site_fract_x
  _atom_site_fract_y
  _atom_site_fract_z
  _atom_site_occupancy
  Ti  Ti1       1.0  0.55714  0.78530  0.52046  1.0000
  Ti  Ti2       1.0  0.51160  0.01262  0.13779  1.0000
  Ti  Ti3       1.0  0.71208  0.85167  0.36230  1.0000
  Ti  Ti4       1.0  0.04428  0.01665  0.79004  1.0000
  Ti  Ti5       1.0  0.76525  0.74373  0.65010  1.0000
  Ti  Ti6       1.0  0.36809  0.38259  0.54231  1.0000
  Ti  Ti7       1.0  0.82197  0.19672  0.32391  1.0000
  Ti  Ti8       1.0  0.45201  0.14968  0.93276  1.0000
  Ti  Ti9       1.0  0.26536  0.88956  0.76835  1.0000
  Ti  Ti10      1.0  0.67652  0.97302  0.96186  1.0000
  Ti  Ti11      1.0  0.96554  0.39005  0.45650  1.0000
  Ti  Ti12      1.0  0.11645  0.61712  0.46519  1.0000
  Ti  Ti13      1.0  0.12418  0.11552  0.64737  1.0000
  Ti  Ti14      1.0  0.11243  0.98583  0.51650  1.0000
  Ti  Ti15      1.0  0.59596  0.14520  0.75744  1.0000
  Ti  Ti16      1.0  0.73655  0.97103  0.90926  1.0000
  Ti  Ti17      1.0  0.31095  0.09967  0.53893  1.0000
  Ti  Ti18      1.0  0.16155  0.70083  0.25921  1.0000
  Ti  Ti19      1.0  0.50496  0.67330  0.23376  1.0000
  Ti  Ti20      1.0  0.36953  0.89024  0.59763  1.0000
  Ti  Ti21      1.0  0.31279  0.00541  0.94995  1.0000
  Ti  Ti22      1.0  0.67273  0.49809  0.16122  1.0000
  Ti  Ti23      1.0  0.54083  0.05193  0.60163  1.0000
  Ti  Ti24      1.0  0.10128  0.87483  0.45427  1.0000
  Ti  Ti25      1.0  0.68356  0.72707  0.90812  1.0000
  Ti  Ti26      1.0  0.38756  0.94890  0.13872  1.0000
  Ti  Ti27      1.0  0.88644  0.89876  0.34338  1.0000
  Ti  Ti28      1.0  0.69920  0.44151  0.78394  1.0000
  Ti  Ti29      1.0  0.89284  0.95141  0.67918  1.0000
  Ti  Ti30      1.0  0.98629  0.21991  0.63581  1.0000
  Ti  Ti31      1.0  0.90910  0.14764  0.97219  1.0000
  Ti  Ti32      1.0  0.67826  0.33060  0.25431  1.0000
  Ti  Ti33      1.0  0.23121  0.84666  0.14575  1.0000
  Ti  Ti34      1.0  0.52064  0.49373  0.96113  1.0000
  Ti  Ti35      1.0  0.67457  0.54609  0.48771  1.0000
  Ti  Ti36      1.0  0.76023  0.76726  0.08181  1.0000
  Ti  Ti37      1.0  0.96751  0.52202  0.35902  1.0000
  Ti  Ti38      1.0  0.55276  0.28399  0.05078  1.0000
  Ti  Ti39      1.0  0.97303  0.75526  0.98785  1.0000
  Ti  Ti40      1.0  0.21050  0.16885  0.05157  1.0000
  Ti  Ti41      1.0  0.55664  0.67108  0.72075  1.0000
  Ti  Ti42      1.0  0.81777  0.44366  0.04401  1.0000
  Ti  Ti43      1.0  0.66879  0.20947  0.34976  1.0000
  Ti  Ti44      1.0  0.82183  0.51597  0.71161  1.0000
  Ti  Ti45      1.0  0.27118  0.65082  0.27750  1.0000
  Ti  Ti46      1.0  0.34914  0.50790  0.33735  1.0000
  Ti  Ti47      1.0  0.13118  0.51949  0.11862  1.0000
  Ti  Ti48      1.0  0.57752  0.50008  0.60110  1.0000
  Ti  Ti49      1.0  0.65068  0.69478  0.62750  1.0000
  Ti  Ti50      1.0  0.09211  0.15506  0.89253  1.0000
  Ti  Ti51      1.0  0.56645  0.01703  0.13578  1.0000
  Ti  Ti52      1.0  0.11726  0.96549  0.79706  1.0000
  Ti  Ti53      1.0  0.40430  0.60666  0.81862  1.0000
  Ti  Ti54      1.0  0.37660  0.36156  0.66931  1.0000
  Ti  Ti55      1.0  0.87450  0.13407  0.26741  1.0000
  Ti  Ti56      1.0  0.45813  0.29255  0.88621  1.0000
  Ti  Ti57      1.0  0.29000  0.89415  0.85814  1.0000
  Ti  Ti58      1.0  0.66888  0.15221  0.39486  1.0000
  Ti  Ti59      1.0  0.31804  0.17036  0.71669  1.0000
  Ti  Ti60      1.0  0.12746  0.56245  0.42246  1.0000
  Ti  Ti61      1.0  0.64421  0.15857  0.68639  1.0000
  Ti  Ti62      1.0  0.18374  0.10704  0.65631  1.0000
  Ti  Ti63      1.0  0.06619  0.99139  0.55740  1.0000
  Ti  Ti64      1.0  0.12569  0.73566  0.17273  1.0000
  Ti  Ti65      1.0  0.06189  0.30418  0.67117  1.0000
  Ti  Ti66      1.0  0.45842  0.36570  0.20205  1.0000
  Ti  Ti67      1.0  0.44557  0.65898  0.27309  1.0000
  Ti  Ti68      1.0  0.07839  0.33287  0.12362  1.0000
  Ti  Ti69      1.0  0.34346  0.99666  0.86145  1.0000
  Ti  Ti70      1.0  0.65288  0.56760  0.15558  1.0000
  Ti  Ti71      1.0  0.50333  0.03886  0.58823  1.0000
  Ti  Ti72      1.0  0.20361  0.98623  0.25240  1.0000
  Ti  Ti73      1.0  0.88467  0.95101  0.39939  1.0000
  Ti  Ti74      1.0  0.63093  0.78284  0.87865  1.0000
  Ti  Ti75      1.0  0.39120  0.88699  0.10322  1.0000
  Ti  Ti76      1.0  0.98985  0.20947  0.49865  1.0000
  Ti  Ti77      1.0  0.70403  0.46927  0.69635  1.0000
  Ti  Ti78      1.0  0.84449  0.97773  0.74293  1.0000
  Ti  Ti79      1.0  0.55670  0.41846  0.30099  1.0000
  Ti  Ti80      1.0  0.81158  0.11210  0.65740  1.0000
  Ti  Ti81      1.0  0.71711  0.30797  0.19124  1.0000
  Ti  Ti82      1.0  0.49592  0.45613  0.97456  1.0000
  Ti  Ti83      1.0  0.71967  0.49777  0.48597  1.0000
  Ti  Ti84      1.0  0.79680  0.72655  0.03741  1.0000
  Ti  Ti85      1.0  0.03118  0.44972  0.33174  1.0000
  Ti  Ti86      1.0  0.50762  0.32398  0.13178  1.0000
  Ti  Ti87      1.0  0.02126  0.69682  0.03094  1.0000
  Ti  Ti88      1.0  0.62944  0.82244  0.37463  1.0000
  Ti  Ti89      1.0  0.59134  0.67602  0.81575  1.0000
  Ti  Ti90      1.0  0.82680  0.40287  0.00439  1.0000
  Ti  Ti91      1.0  0.27204  0.61905  0.18294  1.0000
  Ti  Ti92      1.0  0.92210  0.89577  0.02156  1.0000
  Ti  Ti93      1.0  0.82676  0.53464  0.81942  1.0000
  Ti  Ti94      1.0  0.56891  0.43553  0.62532  1.0000
  Ti  Ti95      1.0  0.39350  0.46232  0.38440  1.0000
  Ti  Ti96      1.0  0.17076  0.52381  0.06787  1.0000
  I   I1        1.0  0.20294  0.49349  0.01614  1.0000
  I   I2        1.0  0.55846  0.98445  0.11166  1.0000
  I   I3        1.0  0.62612  0.73377  0.58529  1.0000
  I   I4        1.0  0.37009  0.60626  0.78786  1.0000
  I   I5        1.0  0.32907  0.41543  0.50808  1.0000
  I   I6        1.0  0.41900  0.35814  0.67063  1.0000
  I   I7        1.0  0.40928  0.18205  0.95995  1.0000
  I   I8        1.0  0.43895  0.26832  0.87397  1.0000
  I   I9        1.0  0.27157  0.84494  0.75976  1.0000
  I   I10       1.0  0.72106  0.95283  0.98863  1.0000
  I   I11       1.0  0.92506  0.39303  0.47152  1.0000
  I   I12       1.0  0.75079  0.78647  0.62338  1.0000
  I   I13       1.0  0.20406  0.10061  0.72145  1.0000
  I   I14       1.0  0.07764  0.98189  0.47186  1.0000
  I   I15       1.0  0.57229  0.18289  0.79674  1.0000
  I   I16       1.0  0.77827  0.96406  0.91486  1.0000
  I   I17       1.0  0.43240  0.40351  0.16400  1.0000
  I   I18       1.0  0.11628  0.76560  0.23042  1.0000
  I   I19       1.0  0.37664  0.92815  0.59327  1.0000
  I   I20       1.0  0.96308  0.42103  0.50522  1.0000
  I   I21       1.0  0.29151  0.02346  0.87387  1.0000
  I   I22       1.0  0.47869  0.05446  0.65429  1.0000
  I   I23       1.0  0.53641  0.03664  0.52335  1.0000
  I   I24       1.0  0.66889  0.55063  0.08071  1.0000
  I   I25       1.0  0.61288  0.80263  0.94774  1.0000
  I   I26       1.0  0.41551  0.91743  0.06823  1.0000
  I   I27       1.0  0.88623  0.93443  0.31671  1.0000
  I   I28       1.0  0.71485  0.42200  0.70167  1.0000
  I   I29       1.0  0.81976  0.01937  0.76052  1.0000
  I   I30       1.0  0.01118  0.16373  0.50210  1.0000
  I   I31       1.0  0.80523  0.14016  0.71293  1.0000
  I   I32       1.0  0.70403  0.29313  0.12840  1.0000
  I   I33       1.0  0.57787  0.37246  0.28216  1.0000
  I   I34       1.0  0.74110  0.45842  0.51484  1.0000
  I   I35       1.0  0.77844  0.78399  0.13185  1.0000
  I   I36       1.0  0.48485  0.52987  0.99197  1.0000
  I   I37       1.0  0.03267  0.40687  0.33583  1.0000
  I   I38       1.0  0.98550  0.70685  0.97623  1.0000
  I   I39       1.0  0.03886  0.45268  0.25121  1.0000
  I   I40       1.0  0.58076  0.71716  0.85204  1.0000
  I   I41       1.0  0.79909  0.40067  0.95505  1.0000
  I   I42       1.0  0.21819  0.17611  0.12483  1.0000
  I   I43       1.0  0.68378  0.11399  0.45376  1.0000
  I   I44       1.0  0.83155  0.51599  0.89490  1.0000
  I   I45       1.0  0.25687  0.66827  0.19481  1.0000
  I   I46       1.0  0.42789  0.45280  0.43374  1.0000
  I   I47       1.0  0.12270  0.49170  0.17407  1.0000
  I   I48       1.0  0.54039  0.53664  0.62488  1.0000
  I   I49       1.0  0.66800  0.71655  0.68120  1.0000
  I   I50       1.0  0.47338  0.03095  0.17797  1.0000
  I   I51       1.0  0.53781  0.99552  0.21447  1.0000
  I   I52       1.0  0.07446  0.96937  0.82289  1.0000
  I   I53       1.0  0.38051  0.64214  0.86430  1.0000
  I   I54       1.0  0.38322  0.32689  0.71284  1.0000
  I   I55       1.0  0.81560  0.22083  0.25652  1.0000
  I   I56       1.0  0.46653  0.10696  0.94824  1.0000
  I   I57       1.0  0.31353  0.87483  0.78837  1.0000
  I   I58       1.0  0.63693  0.01264  0.97855  1.0000
  I   I59       1.0  0.33869  0.13387  0.76027  1.0000
  I   I60       1.0  0.10262  0.59976  0.37791  1.0000
  I   I61       1.0  0.14177  0.14485  0.68269  1.0000
  I   I62       1.0  0.15455  0.09123  0.70685  1.0000
  I   I63       1.0  0.14047  0.95032  0.55483  1.0000
  I   I64       1.0  0.72693  0.98938  0.83231  1.0000
  I   I65       1.0  0.08138  0.29743  0.59870  1.0000
  I   I66       1.0  0.46834  0.37349  0.27778  1.0000
  I   I67       1.0  0.48402  0.66376  0.31168  1.0000
  I   I68       1.0  0.34606  0.87639  0.64432  1.0000
  I   I69       1.0  0.35160  0.00871  0.78639  1.0000
  I   I70       1.0  0.68875  0.52746  0.19768  1.0000
  I   I71       1.0  0.54171  0.00950  0.62409  1.0000
  I   I72       1.0  0.21901  0.01447  0.22886  1.0000
  I   I73       1.0  0.86120  0.99012  0.35565  1.0000
  I   I74       1.0  0.35347  0.93626  0.10927  1.0000
  I   I75       1.0  0.38410  0.88584  0.18644  1.0000
  I   I76       1.0  0.69534  0.40453  0.79729  1.0000
  I   I77       1.0  0.73725  0.45103  0.64027  1.0000
  I   I78       1.0  0.80685  0.97333  0.72918  1.0000
  I   I79       1.0  0.20551  0.87580  0.20151  1.0000
  I   I80       1.0  0.90786  0.10984  0.98949  1.0000
  I   I81       1.0  0.70620  0.27970  0.24086  1.0000
  I   I82       1.0  0.48709  0.42730  0.93762  1.0000
  I   I83       1.0  0.64136  0.55300  0.43820  1.0000
  I   I84       1.0  0.73995  0.80878  0.04165  1.0000
  I   I85       1.0  0.98667  0.47163  0.34215  1.0000
  I   I86       1.0  0.50439  0.33238  0.04227  1.0000
  I   I87       1.0  0.98351  0.76763  0.05197  1.0000
  I   I88       1.0  0.17241  0.16323  0.05775  1.0000
  I   I89       1.0  0.58940  0.63825  0.77645  1.0000
  I   I90       1.0  0.85932  0.36042  0.99404  1.0000
  I   I91       1.0  0.29712  0.62777  0.11879  1.0000
  I   I92       1.0  0.93003  0.91054  0.94989  1.0000
  I   I93       1.0  0.82475  0.53907  0.65288  1.0000
  I   I94       1.0  0.60339  0.50608  0.64951  1.0000
  I   I95       1.0  0.34786  0.55046  0.35574  1.0000
  I   I96       1.0  0.14369  0.55806  0.02557  1.0000
  I   I97       1.0  0.73593  0.81939  0.31098  1.0000
  I   I98       1.0  0.54116  0.82980  0.50171  1.0000
  I   I99       1.0  0.49537  0.98447  0.10555  1.0000
  I   I100      1.0  0.02528  0.01836  0.87292  1.0000
  I   I101      1.0  0.08507  0.00301  0.75524  1.0000
  I   I102      1.0  0.80295  0.73101  0.69094  1.0000
  I   I103      1.0  0.86848  0.11210  0.21089  1.0000
  I   I104      1.0  0.78116  0.21062  0.35258  1.0000
  I   I105      1.0  0.27894  0.88929  0.94112  1.0000
  I   I106      1.0  0.09540  0.55386  0.45001  1.0000
  I   I107      1.0  0.67057  0.95636  0.03310  1.0000
  I   I108      1.0  0.12602  0.58282  0.52620  1.0000
  I   I109      1.0  0.64677  0.17372  0.75973  1.0000
  I   I110      1.0  0.19072  0.13865  0.61924  1.0000
  I   I111      1.0  0.13576  0.96789  0.44660  1.0000
  I   I112      1.0  0.14317  0.72216  0.33009  1.0000
  I   I113      1.0  0.09511  0.30762  0.70102  1.0000
  I   I114      1.0  0.33192  0.08261  0.60881  1.0000
  I   I115      1.0  0.48076  0.71677  0.24043  1.0000
  I   I116      1.0  0.47193  0.65684  0.20743  1.0000
  I   I117      1.0  0.05311  0.36604  0.17178  1.0000
  I   I118      1.0  0.61740  0.60565  0.13947  1.0000
  I   I119      1.0  0.67781  0.58685  0.16257  1.0000
  I   I120      1.0  0.22304  0.95191  0.20711  1.0000
  I   I121      1.0  0.90053  0.89098  0.41927  1.0000
  I   I122      1.0  0.67479  0.69339  0.88915  1.0000
  I   I123      1.0  0.41546  0.92782  0.19906  1.0000
  I   I124      1.0  0.96415  0.20727  0.44022  1.0000
  I   I125      1.0  0.72140  0.44171  0.85603  1.0000
  I   I126      1.0  0.89680  0.95821  0.76140  1.0000
  I   I127      1.0  0.21117  0.86135  0.07648  1.0000
  I   I128      1.0  0.78725  0.14031  0.59895  1.0000
  I   I129      1.0  0.75962  0.30187  0.16754  1.0000
  I   I130      1.0  0.75421  0.72904  0.06351  1.0000
  I   I131      1.0  0.53968  0.44941  0.93808  1.0000
  I   I132      1.0  0.75279  0.49898  0.43468  1.0000
  I   I133      1.0  0.95524  0.80011  0.95392  1.0000
  I   I134      1.0  0.58430  0.24574  0.08547  1.0000
  I   I135      1.0  0.52099  0.27944  0.11227  1.0000
  I   I136      1.0  0.81729  0.45576  0.11964  1.0000
  I   I137      1.0  0.61876  0.79146  0.40227  1.0000
  I   I138      1.0  0.51984  0.67174  0.75447  1.0000
  I   I139      1.0  0.28607  0.62876  0.34998  1.0000
  I   I140      1.0  0.89708  0.87561  0.01134  1.0000
  I   I141      1.0  0.79876  0.55487  0.76286  1.0000
  I   I142      1.0  0.59092  0.50784  0.52174  1.0000
  I   I143      1.0  0.36623  0.50519  0.42902  1.0000
  I   I144      1.0  0.17287  0.52266  0.16190  1.0000
  I   I145      1.0  0.59105  0.74648  0.50071  1.0000
  I   I146      1.0  0.50692  0.02768  0.06048  1.0000
  I   I147      1.0  0.71234  0.88998  0.36708  1.0000
  I   I148      1.0  0.13256  0.92610  0.76638  1.0000
  I   I149      1.0  0.77327  0.71206  0.59692  1.0000
  I   I150      1.0  0.34118  0.38392  0.61623  1.0000
  I   I151      1.0  0.90852  0.10260  0.30429  1.0000
  I   I152      1.0  0.46526  0.16243  0.87056  1.0000
  I   I153      1.0  0.29657  0.93009  0.86131  1.0000
  I   I154      1.0  0.63006  0.16138  0.41857  1.0000
  I   I155      1.0  0.98590  0.34867  0.48349  1.0000
  I   I156      1.0  0.14280  0.53018  0.36218  1.0000
  I   I157      1.0  0.56127  0.14308  0.72529  1.0000
  I   I158      1.0  0.08417  0.98590  0.63112  1.0000
  I   I159      1.0  0.64540  0.18669  0.63054  1.0000
  I   I160      1.0  0.18930  0.71968  0.26280  1.0000
  I   I161      1.0  0.33165  0.12807  0.52013  1.0000
  I   I162      1.0  0.14193  0.75873  0.12436  1.0000
  I   I163      1.0  0.52885  0.66393  0.16099  1.0000
  I   I164      1.0  0.07197  0.29674  0.11550  1.0000
  I   I165      1.0  0.30142  0.97314  0.95322  1.0000
  I   I166      1.0  0.65003  0.48057  0.20458  1.0000
  I   I167      1.0  0.53701  0.06474  0.68221  1.0000
  I   I168      1.0  0.06153  0.87838  0.43200  1.0000
  I   I169      1.0  0.59909  0.77213  0.86068  1.0000
  I   I170      1.0  0.72669  0.70668  0.89710  1.0000
  I   I171      1.0  0.84759  0.93593  0.38577  1.0000
  I   I172      1.0  0.01066  0.22521  0.56349  1.0000
  I   I173      1.0  0.86671  0.92938  0.70683  1.0000
  I   I174      1.0  0.95502  0.25869  0.66700  1.0000
  I   I175      1.0  0.87453  0.18718  0.96051  1.0000
  I   I176      1.0  0.64234  0.33304  0.20887  1.0000
  I   I177      1.0  0.58638  0.43414  0.31983  1.0000
  I   I178      1.0  0.45543  0.49149  0.00247  1.0000
  I   I179      1.0  0.70270  0.48916  0.42543  1.0000
  I   I180      1.0  0.82213  0.68602  0.01305  1.0000
  I   I181      1.0  0.07679  0.43732  0.34444  1.0000
  I   I182      1.0  0.46206  0.33856  0.12947  1.0000
  I   I183      1.0  0.03149  0.71651  0.09339  1.0000
  I   I184      1.0  0.66910  0.80278  0.33227  1.0000
  I   I185      1.0  0.54928  0.68778  0.84713  1.0000
  I   I186      1.0  0.78975  0.41900  0.05673  1.0000
  I   I187      1.0  0.96050  0.87399  0.05801  1.0000
  I   I188      1.0  0.79194  0.50362  0.68204  1.0000
  I   I189      1.0  0.30469  0.65666  0.24458  1.0000
  I   I190      1.0  0.41271  0.42540  0.33588  1.0000
  I   I191      1.0  0.08127  0.17442  0.81734  1.0000
  I   I192      1.0  0.58717  0.40526  0.67679  1.0000
  I   I193      1.0  0.52328  0.78128  0.48843  1.0000
  I   I194      1.0  0.11799  0.17136  0.91589  1.0000
  I   I195      1.0  0.72367  0.83461  0.44142  1.0000
  I   I196      1.0  0.01379  0.01089  0.75033  1.0000
  I   I197      1.0  0.66815  0.17204  0.31884  1.0000
  I   I198      1.0  0.40034  0.39044  0.57392  1.0000
  I   I199      1.0  0.89037  0.15183  0.21381  1.0000
  I   I200      1.0  0.45952  0.30034  0.96644  1.0000
  I   I201      1.0  0.26769  0.91771  0.70840  1.0000
  I   I202      1.0  0.30981  0.15949  0.64045  1.0000
  I   I203      1.0  0.35595  0.95281  0.84321  1.0000
  I   I204      1.0  0.12407  0.65284  0.47758  1.0000
  I   I205      1.0  0.21082  0.07333  0.61084  1.0000
  I   I206      1.0  0.05689  0.95670  0.56338  1.0000
  I   I207      1.0  0.63397  0.12104  0.71634  1.0000
  I   I208      1.0  0.72870  0.93725  0.87876  1.0000
  I   I209      1.0  0.27318  0.12187  0.57091  1.0000
  I   I210      1.0  0.12015  0.70077  0.22618  1.0000
  I   I211      1.0  0.41256  0.70003  0.29909  1.0000
  I   I212      1.0  0.40663  0.85255  0.60768  1.0000
  I   I213      1.0  0.38432  0.99049  0.89424  1.0000
  I   I214      1.0  0.63920  0.54326  0.20258  1.0000
  I   I215      1.0  0.57686  0.05296  0.57303  1.0000
  I   I216      1.0  0.10020  0.85502  0.52358  1.0000
  I   I217      1.0  0.66461  0.74991  0.82348  1.0000
  I   I218      1.0  0.43131  0.85010  0.10133  1.0000
  I   I219      1.0  0.87896  0.95624  0.48120  1.0000
  I   I220      1.0  0.65643  0.46728  0.77471  1.0000
  I   I221      1.0  0.90289  0.96907  0.61414  1.0000
  I   I222      1.0  0.95488  0.22966  0.55698  1.0000
  I   I223      1.0  0.93753  0.15461  0.01904  1.0000
  I   I224      1.0  0.67056  0.31672  0.33124  1.0000
  I   I225      1.0  0.27443  0.83785  0.14469  1.0000
  I   I226      1.0  0.48214  0.49026  0.90670  1.0000
  I   I227      1.0  0.70973  0.54432  0.53312  1.0000
  I   I228      1.0  0.81051  0.72510  0.11448  1.0000
  I   I229      1.0  0.97224  0.54481  0.30055  1.0000
  I   I230      1.0  0.54170  0.26807  0.98736  1.0000
  I   I231      1.0  0.06302  0.67610  0.00124  1.0000
  I   I232      1.0  0.08110  0.02566  0.55194  1.0000
  I   I233      1.0  0.53586  0.71272  0.68580  1.0000
  I   I234      1.0  0.85244  0.41196  0.95162  1.0000
  I   I235      1.0  0.70888  0.20732  0.34811  1.0000
  I   I236      1.0  0.80401  0.57519  0.85866  1.0000
  I   I237      1.0  0.31155  0.58122  0.19383  1.0000
  I   I238      1.0  0.30359  0.52549  0.34285  1.0000
  I   I239      1.0  0.19821  0.54267  0.07073  1.0000
  I   I240      1.0  0.59801  0.45269  0.58734  1.0000
  I   I241      1.0  0.63478  0.66785  0.59355  1.0000
  I   I242      1.0  0.58506  0.03713  0.09995  1.0000
  I   I243      1.0  0.66558  0.87476  0.35428  1.0000
  I   I244      1.0  0.13612  0.94537  0.86606  1.0000
  I   I245      1.0  0.41763  0.57445  0.87679  1.0000
  I   I246      1.0  0.35861  0.40257  0.70004  1.0000
  I   I247      1.0  0.82488  0.16448  0.26918  1.0000
  I   I248      1.0  0.48007  0.15665  0.98537  1.0000
  I   I249      1.0  0.32837  0.86170  0.89607  1.0000
  I   I250      1.0  0.28223  0.19616  0.76005  1.0000
  I   I251      1.0  0.96066  0.38458  0.38076  1.0000
  I   I252      1.0  0.14874  0.53430  0.48905  1.0000
  I   I253      1.0  0.08494  0.15240  0.62858  1.0000
  I   I254      1.0  0.02340  0.02477  0.54337  1.0000
  I   I255      1.0  0.59574  0.18244  0.68837  1.0000
  I   I256      1.0  0.07994  0.26006  0.69796  1.0000
  I   I257      1.0  0.30631  0.06743  0.50082  1.0000
  I   I258      1.0  0.17007  0.69830  0.17325  1.0000
  I   I259      1.0  0.41014  0.66099  0.23734  1.0000
  I   I260      1.0  0.11894  0.31119  0.15490  1.0000
  I   I261      1.0  0.29115  0.03117  0.01008  1.0000
  I   I262      1.0  0.65099  0.50397  0.09479  1.0000
  I   I263      1.0  0.49759  0.00609  0.54850  1.0000
  I   I264      1.0  0.10247  0.91353  0.47250  1.0000
  I   I265      1.0  0.68105  0.72715  0.99057  1.0000
  I   I266      1.0  0.35934  0.97282  0.20225  1.0000
  I   I267      1.0  0.92484  0.94609  0.39038  1.0000
  I   I268      1.0  0.67393  0.46418  0.64099  1.0000
  I   I269      1.0  0.84139  0.96749  0.82454  1.0000
  I   I270      1.0  0.02126  0.21136  0.44535  1.0000
  I   I271      1.0  0.92387  0.14924  0.89774  1.0000
  I   I272      1.0  0.68136  0.35067  0.17947  1.0000
  I   I273      1.0  0.22698  0.80924  0.14983  1.0000
  I   I274      1.0  0.50924  0.43660  0.04811  1.0000
  I   I275      1.0  0.64338  0.56853  0.54724  1.0000
  I   I276      1.0  0.78399  0.73847  0.95710  1.0000
  I   I277      1.0  0.01915  0.49468  0.37474  1.0000
  I   I278      1.0  0.55076  0.31651  0.11559  1.0000
  I   I279      1.0  0.93258  0.75995  0.00535  1.0000
  I   I280      1.0  0.59632  0.85076  0.33568  1.0000
  I   I281      1.0  0.62570  0.65263  0.86202  1.0000
  I   I282      1.0  0.84610  0.46023  0.02230  1.0000
  I   I283      1.0  0.67824  0.18643  0.43317  1.0000
  I   I284      1.0  0.86023  0.54599  0.80669  1.0000
  I   I285      1.0  0.25172  0.69361  0.31035  1.0000
  I   I286      1.0  0.35281  0.45919  0.35618  1.0000
  I   I287      1.0  0.11103  0.51964  0.05054  1.0000
  I   I288      1.0  0.52622  0.44365  0.64357  1.0000
  I   I289      1.0  0.69376  0.68526  0.59747  1.0000
  I   I290      1.0  0.04781  0.17311  0.92566  1.0000
  I   I291      1.0  0.58982  0.00577  0.19939  1.0000
  I   I292      1.0  0.13946  0.99036  0.78157  1.0000
  I   I293      1.0  0.43152  0.60285  0.75787  1.0000
  I   I294      1.0  0.38822  0.33903  0.57735  1.0000
  I   I295      1.0  0.82840  0.22525  0.36810  1.0000
  I   I296      1.0  0.50184  0.27878  0.86956  1.0000
  I   I297      1.0  0.24299  0.90030  0.84293  1.0000
  I   I298      1.0  0.68567  0.11589  0.34360  1.0000
  I   I299      1.0  0.69678  0.00940  0.92463  1.0000
  I   I300      1.0  0.15405  0.59233  0.41875  1.0000
  I   I301      1.0  0.69126  0.13048  0.66672  1.0000
  I   I302      1.0  0.11263  0.08204  0.64676  1.0000
  I   I303      1.0  0.20960  0.20243  0.01289  1.0000
  I   I304      1.0  0.17469  0.66123  0.29371  1.0000
  I   I305      1.0  0.66393  0.95220  0.91293  1.0000
  I   I306      1.0  0.49665  0.36738  0.16356  1.0000
  I   I307      1.0  0.53934  0.67439  0.26555  1.0000
  I   I308      1.0  0.35325  0.89439  0.52647  1.0000
  I   I309      1.0  0.34969  0.98637  0.99599  1.0000
  I   I310      1.0  0.70856  0.46616  0.12503  1.0000
  I   I311      1.0  0.51219  0.09204  0.56917  1.0000
  I   I312      1.0  0.19838  0.96847  0.32723  1.0000
  I   I313      1.0  0.85402  0.88355  0.37136  1.0000
  I   I314      1.0  0.67486  0.77105  0.92061  1.0000
  I   I315      1.0  0.36689  0.87060  0.07780  1.0000
  I   I316      1.0  0.00464  0.21172  0.70849  1.0000
  I   I317      1.0  0.73001  0.46090  0.75932  1.0000
  I   I318      1.0  0.84730  0.97692  0.65046  1.0000
  I   I319      1.0  0.53530  0.43664  0.23290  1.0000
  I   I320      1.0  0.80305  0.07730  0.64542  1.0000
  I   I321      1.0  0.65577  0.36871  0.29873  1.0000
  I   I322      1.0  0.53057  0.50747  0.88696  1.0000
  I   I323      1.0  0.67915  0.50652  0.52807  1.0000
  I   I324      1.0  0.72226  0.77702  0.12673  1.0000
  I   I325      1.0  0.96620  0.54240  0.42827  1.0000
  I   I326      1.0  0.52087  0.30916  0.21685  1.0000
  I   I327      1.0  0.01862  0.73007  0.96384  1.0000
  I   I328      1.0  0.24651  0.13572  0.02085  1.0000
  I   I329      1.0  0.58938  0.69036  0.73337  1.0000
  I   I330      1.0  0.79211  0.47832  0.99444  1.0000
  I   I331      1.0  0.25252  0.62103  0.25746  1.0000
  I   I332      1.0  0.64846  0.24569  0.39224  1.0000
  I   I333      1.0  0.85371  0.47722  0.68129  1.0000
  I   I334      1.0  0.56970  0.41167  0.56100  1.0000
  I   I335      1.0  0.34267  0.51761  0.26169  1.0000
  I   I336      1.0  0.11071  0.55975  0.15208  1.0000
  I   I337      1.0  0.55008  0.78193  0.59867  1.0000
  I   I338      1.0  0.11953  0.10820  0.89149  1.0000
  I   I339      1.0  0.52579  0.05435  0.16097  1.0000
  I   I340      1.0  0.02274  0.06439  0.78518  1.0000
  I   I341      1.0  0.73559  0.74845  0.71204  1.0000
  I   I342      1.0  0.37966  0.37195  0.46705  1.0000
  I   I343      1.0  0.86565  0.15530  0.34596  1.0000
  I   I344      1.0  0.44206  0.32807  0.83973  1.0000
  I   I345      1.0  0.22770  0.88885  0.72809  1.0000
  I   I346      1.0  0.63359  0.23492  0.30167  1.0000
  I   I347      1.0  0.35370  0.17570  0.69879  1.0000
  I   I348      1.0  0.07461  0.64009  0.47000  1.0000
  I   I349      1.0  0.60259  0.12014  0.82530  1.0000
  I   I350      1.0  0.14315  0.11098  0.57097  1.0000
  I   I351      1.0  0.14248  0.00114  0.52753  1.0000
  I   I352      1.0  0.08592  0.75002  0.13287  1.0000
  I   I353      1.0  0.02749  0.34574  0.67770  1.0000
  I   I354      1.0  0.43383  0.34415  0.22167  1.0000
  I   I355      1.0  0.45896  0.61773  0.30733  1.0000
  I   I356      1.0  0.08126  0.34477  0.04996  1.0000
  I   I357      1.0  0.32386  0.03893  0.93117  1.0000
  I   I358      1.0  0.13762  0.84355  0.42442  1.0000
  I   I359      1.0  0.47205  0.06274  0.52955  1.0000
  I   I360      1.0  0.16066  0.00681  0.22804  1.0000
  I   I361      1.0  0.90094  0.86123  0.29772  1.0000
  I   I362      1.0  0.62428  0.82172  0.83945  1.0000
  I   I363      1.0  0.40139  0.97459  0.09598  1.0000
  I   I364      1.0  0.98487  0.17900  0.62808  1.0000
  I   I365      1.0  0.67223  0.51320  0.69351  1.0000
  I   I366      1.0  0.91355  0.91175  0.64564  1.0000
  I   I367      1.0  0.53983  0.41198  0.37525  1.0000
  I   I368      1.0  0.85170  0.09505  0.62726  1.0000
  I   I369      1.0  0.72860  0.31885  0.26895  1.0000
  I   I370      1.0  0.54656  0.50137  0.00742  1.0000
  I   I371      1.0  0.69961  0.55390  0.42131  1.0000
  I   I372      1.0  0.82534  0.74549  0.02654  1.0000
  I   I373      1.0  0.92527  0.52685  0.36406  1.0000
  I   I374      1.0  0.56637  0.30467  0.99425  1.0000
  I   I375      1.0  0.02826  0.66094  0.07272  1.0000
  I   I376      1.0  0.63617  0.84207  0.43892  1.0000
  I   I377      1.0  0.56372  0.63917  0.67111  1.0000
  I   I378      1.0  0.85545  0.40366  0.07828  1.0000
  I   I379      1.0  0.24610  0.60442  0.14078  1.0000
  I   I380      1.0  0.89812  0.93398  0.05561  1.0000
  I   I381      1.0  0.82722  0.49308  0.79089  1.0000
  I   I382      1.0  0.56030  0.47865  0.66680  1.0000
  I   I383      1.0  0.41123  0.48769  0.33096  1.0000
  I   I384      1.0  0.16849  0.48265  0.10064  1.0000
