data_image0
_chemical_formula_structural       Ti96I384
_chemical_formula_sum              "Ti96 I384"
_cell_length_a       79.1903
_cell_length_b       78.8568
_cell_length_c       38.6704
_cell_angle_alpha    88.7757
_cell_angle_beta     88.7757
_cell_angle_gamma    62.1586

_space_group_name_H-M_alt    "P 1"
_space_group_IT_number       1

loop_
  _space_group_symop_operation_xyz
  'x, y, z'

loop_
  _atom_site_type_symbol
  _atom_site_label
  _atom_site_symmetry_multiplicity
  _atom_site_fract_x
  _atom_site_fract_y
  _atom_site_fract_z
  _atom_site_occupancy
  Ti  Ti1       1.0  0.54718  0.71994  0.17364  1.0000
  Ti  Ti2       1.0  0.62131  0.90728  0.53968  1.0000
  Ti  Ti3       1.0  0.08149  0.01794  0.39175  1.0000
  Ti  Ti4       1.0  0.40741  0.78096  0.06277  1.0000
  Ti  Ti5       1.0  0.89153  0.85640  0.77654  1.0000
  Ti  Ti6       1.0  0.18872  0.92402  0.38179  1.0000
  Ti  Ti7       1.0  0.46434  0.09260  0.75809  1.0000
  Ti  Ti8       1.0  0.74772  0.29807  0.59215  1.0000
  Ti  Ti9       1.0  0.10269  0.05049  0.71072  1.0000
  Ti  Ti10      1.0  0.91846  0.38247  0.23820  1.0000
  Ti  Ti11      1.0  0.04493  0.96853  0.79299  1.0000
  Ti  Ti12      1.0  0.23297  0.93289  0.10160  1.0000
  Ti  Ti13      1.0  0.48533  0.66718  0.31719  1.0000
  Ti  Ti14      1.0  0.44584  0.73596  0.10178  1.0000
  Ti  Ti15      1.0  0.88719  0.13394  0.98666  1.0000
  Ti  Ti16      1.0  0.88005  0.34480  0.49515  1.0000
  Ti  Ti17      1.0  0.23308  0.17279  0.45831  1.0000
  Ti  Ti18      1.0  0.62962  0.25560  0.48973  1.0000
  Ti  Ti19      1.0  0.24837  0.00712  0.20788  1.0000
  Ti  Ti20      1.0  0.98614  0.44407  0.68595  1.0000
  Ti  Ti21      1.0  0.70530  0.32771  0.60133  1.0000
  Ti  Ti22      1.0  0.55972  0.32166  0.16182  1.0000
  Ti  Ti23      1.0  0.40715  0.28586  0.36222  1.0000
  Ti  Ti24      1.0  0.65062  0.56388  0.42806  1.0000
  Ti  Ti25      1.0  0.85398  0.15202  0.75719  1.0000
  Ti  Ti26      1.0  0.14249  0.84103  0.77925  1.0000
  Ti  Ti27      1.0  0.80759  0.81415  0.80776  1.0000
  Ti  Ti28      1.0  0.36222  0.99676  0.27228  1.0000
  Ti  Ti29      1.0  0.06435  0.73738  0.65532  1.0000
  Ti  Ti30      1.0  0.28718  0.62692  0.54186  1.0000
  Ti  Ti31      1.0  0.95066  0.85903  0.58051  1.0000
  Ti  Ti32      1.0  0.21848  0.07332  0.69782  1.0000
  Ti  Ti33      1.0  0.68094  0.28231  0.07258  1.0000
  Ti  Ti34      1.0  0.77448  0.58028  0.73308  1.0000
  Ti  Ti35      1.0  0.60776  0.22567  0.79711  1.0000
  Ti  Ti36      1.0  0.91661  0.98964  0.91452  1.0000
  Ti  Ti37      1.0  0.48607  0.94685  0.46132  1.0000
  Ti  Ti38      1.0  0.57067  0.54990  0.63377  1.0000
  Ti  Ti39      1.0  0.93257  0.40672  0.32849  1.0000
  Ti  Ti40      1.0  0.65576  0.80887  0.04912  1.0000
  Ti  Ti41      1.0  0.68471  0.40678  0.12910  1.0000
  Ti  Ti42      1.0  0.23182  0.43362  0.14724  1.0000
  Ti  Ti43      1.0  0.46347  0.56529  0.97517  1.0000
  Ti  Ti44      1.0  0.08678  0.38347  0.45529  1.0000
  Ti  Ti45      1.0  0.95188  0.16482  0.58245  1.0000
  Ti  Ti46      1.0  0.77507  0.70110  0.92901  1.0000
  Ti  Ti47      1.0  0.48188  0.36436  0.66588  1.0000
  Ti  Ti48      1.0  0.68550  0.73446  0.41256  1.0000
  Ti  Ti49      1.0  0.81950  0.88686  0.12155  1.0000
  Ti  Ti50      1.0  0.03021  0.31916  0.92016  1.0000
  Ti  Ti51      1.0  0.63704  0.94213  0.46212  1.0000
  Ti  Ti52      1.0  0.40155  0.71435  0.20056  1.0000
  Ti  Ti53      1.0  0.69209  0.97795  0.32313  1.0000
  Ti  Ti54      1.0  0.70721  0.89136  0.93917  1.0000
  Ti  Ti55      1.0  0.75091  0.62360  0.25186  1.0000
  Ti  Ti56      1.0  0.69907  0.02714  0.56366  1.0000
  Ti  Ti57      1.0  0.08664  0.08403  0.66736  1.0000
  Ti  Ti58      1.0  0.75354  0.06656  0.42052  1.0000
  Ti  Ti59      1.0  0.93023  0.33517  0.55064  1.0000
  Ti  Ti60      1.0  0.12162  0.19021  0.64042  1.0000
  Ti  Ti61      1.0  0.48700  0.19627  0.46388  1.0000
  Ti  Ti62      1.0  0.51190  0.67830  0.36208  1.0000
  Ti  Ti63      1.0  0.02991  0.81544  0.88731  1.0000
  Ti  Ti64      1.0  0.64777  0.21196  0.47513  1.0000
  Ti  Ti65      1.0  0.88436  0.45243  0.01865  1.0000
  Ti  Ti66      1.0  0.33525  0.93904  0.33568  1.0000
  Ti  Ti67      1.0  0.28625  0.71513  0.75851  1.0000
  Ti  Ti68      1.0  0.79012  0.72218  0.71320  1.0000
  Ti  Ti69      1.0  0.20766  0.82925  0.77428  1.0000
  Ti  Ti70      1.0  0.31700  0.52028  0.82975  1.0000
  Ti  Ti71      1.0  0.59650  0.59034  0.09551  1.0000
  Ti  Ti72      1.0  0.53082  0.32753  0.65712  1.0000
  Ti  Ti73      1.0  0.45877  0.47403  0.50469  1.0000
  Ti  Ti74      1.0  0.82454  0.13156  0.74055  1.0000
  Ti  Ti75      1.0  0.82330  0.76429  0.30791  1.0000
  Ti  Ti76      1.0  0.18345  0.97201  0.79280  1.0000
  Ti  Ti77      1.0  0.87619  0.12646  0.04070  1.0000
  Ti  Ti78      1.0  0.03666  0.78884  0.62022  1.0000
  Ti  Ti79      1.0  0.66514  0.06338  0.76134  1.0000
  Ti  Ti80      1.0  0.90014  0.69742  0.33023  1.0000
  Ti  Ti81      1.0  0.38988  0.29335  0.28134  1.0000
  Ti  Ti82      1.0  0.66478  0.55014  0.80297  1.0000
  Ti  Ti83      1.0  0.90146  0.20210  0.61068  1.0000
  Ti  Ti84      1.0  0.88334  0.02217  0.97827  1.0000
  Ti  Ti85      1.0  0.49617  0.95476  0.55187  1.0000
  Ti  Ti86      1.0  0.47926  0.09574  0.68790  1.0000
  Ti  Ti87      1.0  0.48293  0.83748  0.65856  1.0000
  Ti  Ti88      1.0  0.70693  0.21999  0.90241  1.0000
  Ti  Ti89      1.0  0.96166  0.26724  0.99261  1.0000
  Ti  Ti90      1.0  0.26501  0.18489  0.42567  1.0000
  Ti  Ti91      1.0  0.54710  0.41740  0.00724  1.0000
  Ti  Ti92      1.0  0.67434  0.60751  0.78985  1.0000
  Ti  Ti93      1.0  0.34014  0.91407  0.90445  1.0000
  Ti  Ti94      1.0  0.65769  0.75439  0.46931  1.0000
  Ti  Ti95      1.0  0.10997  0.90916  0.99909  1.0000
  Ti  Ti96      1.0  0.25597  0.23238  0.92312  1.0000
  I   I1        1.0  0.45283  0.37481  0.71220  1.0000
  I   I2        1.0  0.61268  0.97293  0.42994  1.0000
  I   I3        1.0  0.82341  0.87965  0.18448  1.0000
  I   I4        1.0  0.69419  0.95024  0.29194  1.0000
  I   I5        1.0  0.16377  0.95284  0.34198  1.0000
  I   I6        1.0  0.69352  0.86796  0.93391  1.0000
  I   I7        1.0  0.71415  0.29747  0.63949  1.0000
  I   I8        1.0  0.72140  0.00131  0.60859  1.0000
  I   I9        1.0  0.05586  0.10779  0.69513  1.0000
  I   I10       1.0  0.65354  0.84000  0.01824  1.0000
  I   I11       1.0  0.00381  0.97674  0.79678  1.0000
  I   I12       1.0  0.87969  0.83068  0.78655  1.0000
  I   I13       1.0  0.53423  0.67215  0.30371  1.0000
  I   I14       1.0  0.01439  0.79416  0.90067  1.0000
  I   I15       1.0  0.91790  0.11637  0.94413  1.0000
  I   I16       1.0  0.68141  0.77874  0.02274  1.0000
  I   I17       1.0  0.34930  0.91422  0.38496  1.0000
  I   I18       1.0  0.67564  0.18473  0.52395  1.0000
  I   I19       1.0  0.05012  0.83829  0.87857  1.0000
  I   I20       1.0  0.05095  0.96175  0.71869  1.0000
  I   I21       1.0  0.77532  0.30233  0.62758  1.0000
  I   I22       1.0  0.41298  0.30934  0.26753  1.0000
  I   I23       1.0  0.73089  0.23291  0.88330  1.0000
  I   I24       1.0  0.31994  0.49011  0.86457  1.0000
  I   I25       1.0  0.85267  0.17181  0.81039  1.0000
  I   I26       1.0  0.85744  0.76334  0.29623  1.0000
  I   I27       1.0  0.61685  0.25162  0.77812  1.0000
  I   I28       1.0  0.36794  0.02433  0.24695  1.0000
  I   I29       1.0  0.00486  0.78221  0.60827  1.0000
  I   I30       1.0  0.25199  0.65645  0.53422  1.0000
  I   I31       1.0  0.92485  0.66178  0.33386  1.0000
  I   I32       1.0  0.38300  0.30381  0.41747  1.0000
  I   I33       1.0  0.68388  0.06459  0.81532  1.0000
  I   I34       1.0  0.61774  0.18862  0.81324  1.0000
  I   I35       1.0  0.89837  0.02979  0.03253  1.0000
  I   I36       1.0  0.79976  0.59094  0.70628  1.0000
  I   I37       1.0  0.51812  0.92716  0.43769  1.0000
  I   I38       1.0  0.94513  0.34941  0.21161  1.0000
  I   I39       1.0  0.46771  0.93255  0.41891  1.0000
  I   I40       1.0  0.09841  0.38299  0.39325  1.0000
  I   I41       1.0  0.06323  0.30642  0.88323  1.0000
  I   I42       1.0  0.62285  0.80823  0.05492  1.0000
  I   I43       1.0  0.77921  0.05026  0.36808  1.0000
  I   I44       1.0  0.96442  0.12945  0.59683  1.0000
  I   I45       1.0  0.87468  0.22693  0.65401  1.0000
  I   I46       1.0  0.10018  0.90906  0.06555  1.0000
  I   I47       1.0  0.46847  0.40303  0.66036  1.0000
  I   I48       1.0  0.65808  0.72367  0.42920  1.0000
  I   I49       1.0  0.79208  0.87911  0.11023  1.0000
  I   I50       1.0  0.63720  0.89442  0.59876  1.0000
  I   I51       1.0  0.60318  0.88562  0.54240  1.0000
  I   I52       1.0  0.87208  0.71909  0.36867  1.0000
  I   I53       1.0  0.72579  0.97404  0.34961  1.0000
  I   I54       1.0  0.74412  0.87417  0.94247  1.0000
  I   I55       1.0  0.45837  0.07359  0.69262  1.0000
  I   I56       1.0  0.70114  0.32116  0.53465  1.0000
  I   I57       1.0  0.10914  0.94216  0.00212  1.0000
  I   I58       1.0  0.96461  0.38855  0.35355  1.0000
  I   I59       1.0  0.91263  0.35117  0.48687  1.0000
  I   I60       1.0  0.10675  0.20762  0.69929  1.0000
  I   I61       1.0  0.52814  0.69028  0.41059  1.0000
  I   I62       1.0  0.47473  0.64008  0.31578  1.0000
  I   I63       1.0  0.95256  0.46294  0.66007  1.0000
  I   I64       1.0  0.93710  0.31761  0.61350  1.0000
  I   I65       1.0  0.67036  0.80106  0.10899  1.0000
  I   I66       1.0  0.33800  0.99904  0.22918  1.0000
  I   I67       1.0  0.23841  0.98188  0.23202  1.0000
  I   I68       1.0  0.98515  0.41196  0.71441  1.0000
  I   I69       1.0  0.13567  0.81800  0.74510  1.0000
  I   I70       1.0  0.33296  0.52299  0.77000  1.0000
  I   I71       1.0  0.41204  0.25818  0.40722  1.0000
  I   I72       1.0  0.55519  0.33329  0.62769  1.0000
  I   I73       1.0  0.78146  0.84251  0.76353  1.0000
  I   I74       1.0  0.11125  0.87419  0.75457  1.0000
  I   I75       1.0  0.22376  0.82230  0.83373  1.0000
  I   I76       1.0  0.85384  0.10779  0.04926  1.0000
  I   I77       1.0  0.90022  0.14934  0.03147  1.0000
  I   I78       1.0  0.93786  0.89443  0.60344  1.0000
  I   I79       1.0  0.65626  0.26900  0.05421  1.0000
  I   I80       1.0  0.53969  0.70360  0.22571  1.0000
  I   I81       1.0  0.21178  0.10853  0.71986  1.0000
  I   I82       1.0  0.69147  0.52174  0.76343  1.0000
  I   I83       1.0  0.88073  0.23829  0.57603  1.0000
  I   I84       1.0  0.88380  0.99839  0.88783  1.0000
  I   I85       1.0  0.48755  0.92504  0.52476  1.0000
  I   I86       1.0  0.34761  0.01018  0.33132  1.0000
  I   I87       1.0  0.92099  0.44346  0.31748  1.0000
  I   I88       1.0  0.95036  0.39193  0.26337  1.0000
  I   I89       1.0  0.78449  0.54311  0.73574  1.0000
  I   I90       1.0  0.03538  0.32638  0.98316  1.0000
  I   I91       1.0  0.52292  0.41585  0.96711  1.0000
  I   I92       1.0  0.66208  0.61869  0.85340  1.0000
  I   I93       1.0  0.07947  0.41660  0.47592  1.0000
  I   I94       1.0  0.64037  0.77251  0.41015  1.0000
  I   I95       1.0  0.77031  0.70319  0.99624  1.0000
  I   I96       1.0  0.59699  0.30092  0.15939  1.0000
  I   I97       1.0  0.06229  0.00171  0.41715  1.0000
  I   I98       1.0  0.55741  0.74312  0.20932  1.0000
  I   I99       1.0  0.59012  0.93720  0.56769  1.0000
  I   I100      1.0  0.42878  0.71036  0.10854  1.0000
  I   I101      1.0  0.68201  0.24813  0.93736  1.0000
  I   I102      1.0  0.86160  0.88745  0.79580  1.0000
  I   I103      1.0  0.49038  0.12143  0.68551  1.0000
  I   I104      1.0  0.73392  0.65203  0.29005  1.0000
  I   I105      1.0  0.12417  0.05891  0.64997  1.0000
  I   I106      1.0  0.20301  0.96159  0.08283  1.0000
  I   I107      1.0  0.89765  0.36818  0.22383  1.0000
  I   I108      1.0  0.24604  0.89702  0.12060  1.0000
  I   I109      1.0  0.88400  0.16241  0.93913  1.0000
  I   I110      1.0  0.52072  0.64163  0.31724  1.0000
  I   I111      1.0  0.01327  0.43716  0.63436  1.0000
  I   I112      1.0  0.65977  0.17845  0.44336  1.0000
  I   I113      1.0  0.85282  0.45240  0.02386  1.0000
  I   I114      1.0  0.19764  0.19184  0.47977  1.0000
  I   I115      1.0  0.27210  0.72986  0.81479  1.0000
  I   I116      1.0  0.31970  0.68529  0.75738  1.0000
  I   I117      1.0  0.77776  0.70745  0.66886  1.0000
  I   I118      1.0  0.24342  0.22111  0.97499  1.0000
  I   I119      1.0  0.26353  0.70051  0.73751  1.0000
  I   I120      1.0  0.49865  0.35899  0.60349  1.0000
  I   I121      1.0  0.44132  0.48953  0.44781  1.0000
  I   I122      1.0  0.88884  0.13380  0.71552  1.0000
  I   I123      1.0  0.80400  0.79632  0.27735  1.0000
  I   I124      1.0  0.29982  0.59934  0.58809  1.0000
  I   I125      1.0  0.17291  0.96721  0.72903  1.0000
  I   I126      1.0  0.01785  0.81843  0.66751  1.0000
  I   I127      1.0  0.66602  0.30782  0.12008  1.0000
  I   I128      1.0  0.47668  0.70123  0.09735  1.0000
  I   I129      1.0  0.41965  0.25865  0.30885  1.0000
  I   I130      1.0  0.90901  0.97817  0.98318  1.0000
  I   I131      1.0  0.64029  0.53817  0.77549  1.0000
  I   I132      1.0  0.60677  0.23121  0.86513  1.0000
  I   I133      1.0  0.91499  0.41045  0.38543  1.0000
  I   I134      1.0  0.56997  0.58522  0.60895  1.0000
  I   I135      1.0  0.31769  0.97069  0.36595  1.0000
  I   I136      1.0  0.25874  0.44442  0.14456  1.0000
  I   I137      1.0  0.41269  0.68882  0.24671  1.0000
  I   I138      1.0  0.96776  0.25104  0.93455  1.0000
  I   I139      1.0  0.52197  0.42737  0.05818  1.0000
  I   I140      1.0  0.65188  0.59393  0.76474  1.0000
  I   I141      1.0  0.33471  0.92448  0.84087  1.0000
  I   I142      1.0  0.63041  0.78028  0.51147  1.0000
  I   I143      1.0  0.06420  0.03625  0.33506  1.0000
  I   I144      1.0  0.55251  0.29432  0.13969  1.0000
  I   I145      1.0  0.58468  0.70267  0.17355  1.0000
  I   I146      1.0  0.60510  0.93756  0.47888  1.0000
  I   I147      1.0  0.07199  0.05038  0.43161  1.0000
  I   I148      1.0  0.36457  0.73039  0.21885  1.0000
  I   I149      1.0  0.90663  0.84910  0.71399  1.0000
  I   I150      1.0  0.18078  0.89554  0.38115  1.0000
  I   I151      1.0  0.71632  0.63871  0.21571  1.0000
  I   I152      1.0  0.73928  0.26642  0.58909  1.0000
  I   I153      1.0  0.08612  0.11607  0.64084  1.0000
  I   I154      1.0  0.47296  0.59327  0.95636  1.0000
  I   I155      1.0  0.05517  0.97594  0.85172  1.0000
  I   I156      1.0  0.12456  0.21699  0.59729  1.0000
  I   I157      1.0  0.87468  0.13264  0.10521  1.0000
  I   I158      1.0  0.99613  0.84426  0.89733  1.0000
  I   I159      1.0  0.51390  0.19374  0.42524  1.0000
  I   I160      1.0  0.62254  0.22823  0.52471  1.0000
  I   I161      1.0  0.25152  0.13376  0.47592  1.0000
  I   I162      1.0  0.63847  0.27716  0.53460  1.0000
  I   I163      1.0  0.21659  0.03691  0.20855  1.0000
  I   I164      1.0  0.77382  0.73142  0.89252  1.0000
  I   I165      1.0  0.71730  0.33971  0.66815  1.0000
  I   I166      1.0  0.26951  0.20290  0.88010  1.0000
  I   I167      1.0  0.38599  0.26199  0.25628  1.0000
  I   I168      1.0  0.66150  0.56817  0.36385  1.0000
  I   I169      1.0  0.81757  0.11615  0.79360  1.0000
  I   I170      1.0  0.81445  0.16881  0.74981  1.0000
  I   I171      1.0  0.82037  0.77962  0.82809  1.0000
  I   I172      1.0  0.20136  0.93952  0.83218  1.0000
  I   I173      1.0  0.05990  0.75666  0.58588  1.0000
  I   I174      1.0  0.31437  0.61795  0.49579  1.0000
  I   I175      1.0  0.95070  0.87258  0.51928  1.0000
  I   I176      1.0  0.25106  0.04920  0.73235  1.0000
  I   I177      1.0  0.69598  0.04381  0.71985  1.0000
  I   I178      1.0  0.64233  0.58318  0.83653  1.0000
  I   I179      1.0  0.93504  0.20748  0.59458  1.0000
  I   I180      1.0  0.87098  0.05484  0.94506  1.0000
  I   I181      1.0  0.45803  0.97427  0.50526  1.0000
  I   I182      1.0  0.47977  0.11205  0.77707  1.0000
  I   I183      1.0  0.47991  0.85283  0.72184  1.0000
  I   I184      1.0  0.69440  0.21004  0.84640  1.0000
  I   I185      1.0  0.97250  0.23263  0.02428  1.0000
  I   I186      1.0  0.24581  0.39692  0.16001  1.0000
  I   I187      1.0  0.65624  0.63831  0.75446  1.0000
  I   I188      1.0  0.05517  0.38304  0.46940  1.0000
  I   I189      1.0  0.49772  0.85525  0.62328  1.0000
  I   I190      1.0  0.74154  0.70847  0.90641  1.0000
  I   I191      1.0  0.22834  0.21027  0.42784  1.0000
  I   I192      1.0  0.10652  0.97677  0.39995  1.0000
  I   I193      1.0  0.07066  0.77329  0.66142  1.0000
  I   I194      1.0  0.98906  0.46759  0.72900  1.0000
  I   I195      1.0  0.11116  0.02713  0.38182  1.0000
  I   I196      1.0  0.43004  0.79611  0.06832  1.0000
  I   I197      1.0  0.77340  0.07208  0.46746  1.0000
  I   I198      1.0  0.21976  0.91643  0.35319  1.0000
  I   I199      1.0  0.20631  0.04729  0.70195  1.0000
  I   I200      1.0  0.66824  0.02434  0.56347  1.0000
  I   I201      1.0  0.13780  0.02565  0.73306  1.0000
  I   I202      1.0  0.87378  0.36568  0.43486  1.0000
  I   I203      1.0  0.17904  0.81001  0.79581  1.0000
  I   I204      1.0  0.25617  0.94093  0.05600  1.0000
  I   I205      1.0  0.48426  0.67394  0.39301  1.0000
  I   I206      1.0  0.37237  0.81146  0.05627  1.0000
  I   I207      1.0  0.86240  0.12431  0.96419  1.0000
  I   I208      1.0  0.88572  0.30909  0.48244  1.0000
  I   I209      1.0  0.29257  0.14734  0.42265  1.0000
  I   I210      1.0  0.63384  0.06019  0.77897  1.0000
  I   I211      1.0  0.32765  0.54062  0.86531  1.0000
  I   I212      1.0  0.03884  0.80535  0.82186  1.0000
  I   I213      1.0  0.17038  0.84973  0.75422  1.0000
  I   I214      1.0  0.55088  0.35183  0.12806  1.0000
  I   I215      1.0  0.42626  0.30325  0.38451  1.0000
  I   I216      1.0  0.30933  0.93671  0.93741  1.0000
  I   I217      1.0  0.85252  0.18223  0.71526  1.0000
  I   I218      1.0  0.79729  0.76625  0.35093  1.0000
  I   I219      1.0  0.49030  0.47310  0.49181  1.0000
  I   I220      1.0  0.90863  0.09795  0.02023  1.0000
  I   I221      1.0  0.07029  0.73666  0.72263  1.0000
  I   I222      1.0  0.21190  0.97608  0.78665  1.0000
  I   I223      1.0  0.98497  0.84351  0.60498  1.0000
  I   I224      1.0  0.20144  0.08943  0.63758  1.0000
  I   I225      1.0  0.71710  0.26290  0.09007  1.0000
  I   I226      1.0  0.66951  0.53261  0.85933  1.0000
  I   I227      1.0  0.57204  0.23408  0.77729  1.0000
  I   I228      1.0  0.94296  0.95406  0.90422  1.0000
  I   I229      1.0  0.72864  0.09218  0.37731  1.0000
  I   I230      1.0  0.53242  0.57451  0.65540  1.0000
  I   I231      1.0  0.88989  0.41676  0.24669  1.0000
  I   I232      1.0  0.40658  0.76699  0.12976  1.0000
  I   I233      1.0  0.71688  0.40445  0.10344  1.0000
  I   I234      1.0  0.22727  0.15902  0.40572  1.0000
  I   I235      1.0  0.49371  0.53468  0.97050  1.0000
  I   I236      1.0  0.37290  0.91024  0.93286  1.0000
  I   I237      1.0  0.57007  0.43418  0.99799  1.0000
  I   I238      1.0  0.14422  0.88516  0.00494  1.0000
  I   I239      1.0  0.28948  0.22614  0.94308  1.0000
  I   I240      1.0  0.71853  0.70537  0.42659  1.0000
  I   I241      1.0  0.52649  0.72911  0.12015  1.0000
  I   I242      1.0  0.65019  0.91928  0.51962  1.0000
  I   I243      1.0  0.82806  0.70838  0.70692  1.0000
  I   I244      1.0  0.72406  0.18760  0.94044  1.0000
  I   I245      1.0  0.69576  0.99802  0.27206  1.0000
  I   I246      1.0  0.18044  0.94790  0.43739  1.0000
  I   I247      1.0  0.47075  0.06787  0.80727  1.0000
  I   I248      1.0  0.73145  0.34000  0.57520  1.0000
  I   I249      1.0  0.06996  0.07266  0.62356  1.0000
  I   I250      1.0  0.92863  0.36412  0.58682  1.0000
  I   I251      1.0  0.02647  0.00668  0.80193  1.0000
  I   I252      1.0  0.09915  0.17569  0.61689  1.0000
  I   I253      1.0  0.44795  0.68887  0.34513  1.0000
  I   I254      1.0  0.45733  0.74603  0.15600  1.0000
  I   I255      1.0  0.48408  0.22595  0.49849  1.0000
  I   I256      1.0  0.86783  0.48771  0.04372  1.0000
  I   I257      1.0  0.47589  0.96404  0.61147  1.0000
  I   I258      1.0  0.66778  0.22958  0.45818  1.0000
  I   I259      1.0  0.29132  0.74033  0.71813  1.0000
  I   I260      1.0  0.79999  0.67979  0.87795  1.0000
  I   I261      1.0  0.66977  0.36103  0.61203  1.0000
  I   I262      1.0  0.55858  0.33019  0.22879  1.0000
  I   I263      1.0  0.60649  0.55621  0.11744  1.0000
  I   I264      1.0  0.92354  0.01253  0.95041  1.0000
  I   I265      1.0  0.79484  0.14019  0.70541  1.0000
  I   I266      1.0  0.12334  0.85282  0.83480  1.0000
  I   I267      1.0  0.46497  0.43940  0.50807  1.0000
  I   I268      1.0  0.35792  0.96023  0.31850  1.0000
  I   I269      1.0  0.04148  0.81740  0.58131  1.0000
  I   I270      1.0  0.39863  0.97861  0.28142  1.0000
  I   I271      1.0  0.92265  0.84959  0.56107  1.0000
  I   I272      1.0  0.37089  0.32375  0.23599  1.0000
  I   I273      1.0  0.68950  0.30157  0.02913  1.0000
  I   I274      1.0  0.67818  0.38868  0.07517  1.0000
  I   I275      1.0  0.83826  0.81338  0.78352  1.0000
  I   I276      1.0  0.85708  0.01792  0.02247  1.0000
  I   I277      1.0  0.69376  0.56414  0.81982  1.0000
  I   I278      1.0  0.60024  0.52677  0.66768  1.0000
  I   I279      1.0  0.11268  0.35643  0.49223  1.0000
  I   I280      1.0  0.41234  0.74244  0.21442  1.0000
  I   I281      1.0  0.69436  0.37814  0.16931  1.0000
  I   I282      1.0  0.20038  0.46158  0.12148  1.0000
  I   I283      1.0  0.45922  0.57062  0.04019  1.0000
  I   I284      1.0  0.63938  0.59604  0.46643  1.0000
  I   I285      1.0  0.51734  0.80549  0.67835  1.0000
  I   I286      1.0  0.08628  0.89888  0.97434  1.0000
  I   I287      1.0  0.54617  0.29185  0.65105  1.0000
  I   I288      1.0  0.68376  0.76721  0.44642  1.0000
  I   I289      1.0  0.43558  0.55790  0.95118  1.0000
  I   I290      1.0  0.27625  0.19912  0.46973  1.0000
  I   I291      1.0  0.64907  0.96635  0.47269  1.0000
  I   I292      1.0  0.39880  0.69154  0.15527  1.0000
  I   I293      1.0  0.66388  0.00055  0.37023  1.0000
  I   I294      1.0  0.69010  0.90811  0.99535  1.0000
  I   I295      1.0  0.50854  0.06916  0.73319  1.0000
  I   I296      1.0  0.69293  0.05756  0.59442  1.0000
  I   I297      1.0  0.07789  0.03990  0.73904  1.0000
  I   I298      1.0  0.73400  0.04823  0.43299  1.0000
  I   I299      1.0  0.84519  0.36293  0.51333  1.0000
  I   I300      1.0  0.36301  0.87708  0.87145  1.0000
  I   I301      1.0  0.50437  0.16933  0.50962  1.0000
  I   I302      1.0  0.47760  0.67330  0.24800  1.0000
  I   I303      1.0  0.91013  0.43456  0.97415  1.0000
  I   I304      1.0  0.61579  0.28083  0.43839  1.0000
  I   I305      1.0  0.89061  0.34022  0.56393  1.0000
  I   I306      1.0  0.42553  0.11333  0.77688  1.0000
  I   I307      1.0  0.28572  0.99384  0.22783  1.0000
  I   I308      1.0  0.01347  0.34915  0.88552  1.0000
  I   I309      1.0  0.76466  0.28877  0.53173  1.0000
  I   I310      1.0  0.84543  0.87509  0.07597  1.0000
  I   I311      1.0  0.59976  0.60797  0.15155  1.0000
  I   I312      1.0  0.51346  0.36471  0.69471  1.0000
  I   I313      1.0  0.44053  0.49050  0.56128  1.0000
  I   I314      1.0  0.86161  0.11676  0.77612  1.0000
  I   I315      1.0  0.82440  0.73618  0.27085  1.0000
  I   I316      1.0  0.15449  0.99884  0.83475  1.0000
  I   I317      1.0  0.31521  0.92640  0.29817  1.0000
  I   I318      1.0  0.03316  0.73491  0.65659  1.0000
  I   I319      1.0  0.63215  0.10016  0.75301  1.0000
  I   I320      1.0  0.39971  0.75622  0.03385  1.0000
  I   I321      1.0  0.74731  0.59480  0.28871  1.0000
  I   I322      1.0  0.78017  0.58529  0.79227  1.0000
  I   I323      1.0  0.92980  0.17607  0.53379  1.0000
  I   I324      1.0  0.92880  0.99957  0.85362  1.0000
  I   I325      1.0  0.50605  0.96846  0.49149  1.0000
  I   I326      1.0  0.48410  0.09845  0.62028  1.0000
  I   I327      1.0  0.97900  0.16178  0.54244  1.0000
  I   I328      1.0  0.92322  0.37844  0.30766  1.0000
  I   I329      1.0  0.93071  0.29651  0.02605  1.0000
  I   I330      1.0  0.25356  0.17661  0.50551  1.0000
  I   I331      1.0  0.47115  0.81211  0.64103  1.0000
  I   I332      1.0  0.27112  0.18919  0.36167  1.0000
  I   I333      1.0  0.74952  0.59424  0.67839  1.0000
  I   I334      1.0  0.68175  0.72831  0.51458  1.0000
  I   I335      1.0  0.75659  0.74600  0.73705  1.0000
  I   I336      1.0  0.23018  0.27228  0.93239  1.0000
  I   I337      1.0  0.79908  0.92294  0.09181  1.0000
  I   I338      1.0  0.00464  0.30574  0.91208  1.0000
  I   I339      1.0  0.66267  0.92032  0.41255  1.0000
  I   I340      1.0  0.92179  0.71235  0.34125  1.0000
  I   I341      1.0  0.92227  0.84813  0.81379  1.0000
  I   I342      1.0  0.68471  0.91877  0.89862  1.0000
  I   I343      1.0  0.78858  0.61011  0.25581  1.0000
  I   I344      1.0  0.71673  0.00226  0.51392  1.0000
  I   I345      1.0  0.10387  0.07584  0.74948  1.0000
  I   I346      1.0  0.28300  0.54137  0.80355  1.0000
  I   I347      1.0  0.96296  0.32549  0.52907  1.0000
  I   I348      1.0  0.15767  0.16937  0.63796  1.0000
  I   I349      1.0  0.47142  0.19155  0.40928  1.0000
  I   I350      1.0  0.48661  0.70595  0.31935  1.0000
  I   I351      1.0  0.45216  0.75096  0.04208  1.0000
  I   I352      1.0  0.62149  0.23117  0.42947  1.0000
  I   I353      1.0  0.90566  0.42780  0.07104  1.0000
  I   I354      1.0  0.44174  0.11961  0.69672  1.0000
  I   I355      1.0  0.25533  0.00414  0.14020  1.0000
  I   I356      1.0  0.79772  0.69731  0.76456  1.0000
  I   I357      1.0  0.22109  0.85286  0.76434  1.0000
  I   I358      1.0  0.61976  0.55853  0.42977  1.0000
  I   I359      1.0  0.56040  0.60197  0.06883  1.0000
  I   I360      1.0  0.54708  0.31993  0.72243  1.0000
  I   I361      1.0  0.79979  0.83019  0.87227  1.0000
  I   I362      1.0  0.84602  0.12002  0.67999  1.0000
  I   I363      1.0  0.23116  0.80369  0.73145  1.0000
  I   I364      1.0  0.29093  0.65831  0.56638  1.0000
  I   I365      1.0  0.84340  0.16294  0.02076  1.0000
  I   I366      1.0  0.08808  0.70572  0.63754  1.0000
  I   I367      1.0  0.67824  0.02519  0.76196  1.0000
  I   I368      1.0  0.87705  0.69881  0.28438  1.0000
  I   I369      1.0  0.36255  0.31274  0.33865  1.0000
  I   I370      1.0  0.64934  0.42362  0.14892  1.0000
  I   I371      1.0  0.87502  0.19690  0.56886  1.0000
  I   I372      1.0  0.67408  0.53049  0.45537  1.0000
  I   I373      1.0  0.52662  0.92818  0.57915  1.0000
  I   I374      1.0  0.57260  0.53406  0.57398  1.0000
  I   I375      1.0  0.93036  0.17189  0.65408  1.0000
  I   I376      1.0  0.61346  0.58748  0.03898  1.0000
  I   I377      1.0  0.99038  0.27286  0.99433  1.0000
  I   I378      1.0  0.22776  0.43138  0.21250  1.0000
  I   I379      1.0  0.56547  0.38083  0.03461  1.0000
  I   I380      1.0  0.70917  0.59053  0.76251  1.0000
  I   I381      1.0  0.24120  0.94298  0.15935  1.0000
  I   I382      1.0  0.68817  0.74060  0.34515  1.0000
  I   I383      1.0  0.07927  0.93571  0.77330  1.0000
  I   I384      1.0  0.48450  0.32923  0.68698  1.0000
