data_image0
_chemical_formula_structural       Ti96I384
_chemical_formula_sum              "Ti96 I384"
_cell_length_a       80.9558
_cell_length_b       80.3724
_cell_length_c       39.2973
_cell_angle_alpha    88.7757
_cell_angle_beta     88.7757
_cell_angle_gamma    62.1586

_space_group_name_H-M_alt    "P 1"
_space_group_IT_number       1

loop_
  _space_group_symop_operation_xyz
  'x, y, z'

loop_
  _atom_site_type_symbol
  _atom_site_label
  _atom_site_symmetry_multiplicity
  _atom_site_fract_x
  _atom_site_fract_y
  _atom_site_fract_z
  _atom_site_occupancy
  Ti  Ti1       1.0  0.67349  0.46433  0.42754  1.0000
  Ti  Ti2       1.0  0.71392  0.10273  0.57065  1.0000
  Ti  Ti3       1.0  0.95615  0.02490  0.17203  1.0000
  Ti  Ti4       1.0  0.41412  0.85620  0.97903  1.0000
  Ti  Ti5       1.0  0.90028  0.42684  0.59144  1.0000
  Ti  Ti6       1.0  0.18487  0.87609  0.70455  1.0000
  Ti  Ti7       1.0  0.31642  0.40694  0.83369  1.0000
  Ti  Ti8       1.0  0.37220  0.64327  0.12409  1.0000
  Ti  Ti9       1.0  0.94106  0.19787  0.75930  1.0000
  Ti  Ti10      1.0  0.90570  0.25165  0.99152  1.0000
  Ti  Ti11      1.0  0.29574  0.79909  0.62236  1.0000
  Ti  Ti12      1.0  0.53516  0.90421  0.49394  1.0000
  Ti  Ti13      1.0  0.56029  0.52350  0.36340  1.0000
  Ti  Ti14      1.0  0.44703  0.85690  0.91750  1.0000
  Ti  Ti15      1.0  0.62974  0.31306  0.78038  1.0000
  Ti  Ti16      1.0  0.84152  0.70326  0.04229  1.0000
  Ti  Ti17      1.0  0.59908  0.02225  0.56495  1.0000
  Ti  Ti18      1.0  0.53032  0.43590  0.42610  1.0000
  Ti  Ti19      1.0  0.62960  0.17641  0.16566  1.0000
  Ti  Ti20      1.0  0.57598  0.78812  0.29147  1.0000
  Ti  Ti21      1.0  0.25991  0.60504  0.71445  1.0000
  Ti  Ti22      1.0  0.47807  0.19230  0.09485  1.0000
  Ti  Ti23      1.0  0.47755  0.06924  0.97666  1.0000
  Ti  Ti24      1.0  0.87300  0.39244  0.63304  1.0000
  Ti  Ti25      1.0  0.95175  0.98462  0.88203  1.0000
  Ti  Ti26      1.0  0.26990  0.68013  0.07162  1.0000
  Ti  Ti27      1.0  0.94227  0.78740  0.52780  1.0000
  Ti  Ti28      1.0  0.29241  0.21235  0.02618  1.0000
  Ti  Ti29      1.0  0.86844  0.72435  0.22995  1.0000
  Ti  Ti30      1.0  0.45519  0.58898  0.82659  1.0000
  Ti  Ti31      1.0  0.79873  0.93117  0.36373  1.0000
  Ti  Ti32      1.0  0.02031  0.30855  0.78617  1.0000
  Ti  Ti33      1.0  0.83944  0.23633  0.41948  1.0000
  Ti  Ti34      1.0  0.61720  0.68702  0.84397  1.0000
  Ti  Ti35      1.0  0.23471  0.09340  0.04775  1.0000
  Ti  Ti36      1.0  0.24120  0.82535  0.97555  1.0000
  Ti  Ti37      1.0  0.23907  0.92574  0.97467  1.0000
  Ti  Ti38      1.0  0.50793  0.64438  0.65125  1.0000
  Ti  Ti39      1.0  0.88069  0.27183  0.94681  1.0000
  Ti  Ti40      1.0  0.56802  0.04872  0.09617  1.0000
  Ti  Ti41      1.0  0.41037  0.85001  0.55707  1.0000
  Ti  Ti42      1.0  0.37416  0.50981  0.65644  1.0000
  Ti  Ti43      1.0  0.37936  0.57917  0.35937  1.0000
  Ti  Ti44      1.0  0.41558  0.48135  0.21047  1.0000
  Ti  Ti45      1.0  0.84308  0.15834  0.23934  1.0000
  Ti  Ti46      1.0  0.65761  0.79339  0.53725  1.0000
  Ti  Ti47      1.0  0.13112  0.62218  0.54420  1.0000
  Ti  Ti48      1.0  0.47449  0.96069  0.96784  1.0000
  Ti  Ti49      1.0  0.43195  0.97366  0.32292  1.0000
  Ti  Ti50      1.0  0.16384  0.33334  0.65346  1.0000
  Ti  Ti51      1.0  0.49997  0.00573  0.95284  1.0000
  Ti  Ti52      1.0  0.87328  0.45941  0.40584  1.0000
  Ti  Ti53      1.0  0.65965  0.36448  0.80551  1.0000
  Ti  Ti54      1.0  0.76514  0.95389  0.55274  1.0000
  Ti  Ti55      1.0  0.06840  0.72786  0.95157  1.0000
  Ti  Ti56      1.0  0.72594  0.12281  0.75873  1.0000
  Ti  Ti57      1.0  0.92863  0.18891  0.81696  1.0000
  Ti  Ti58      1.0  0.00093  0.78941  0.09201  1.0000
  Ti  Ti59      1.0  0.84192  0.67309  0.96850  1.0000
  Ti  Ti60      1.0  0.62182  0.15918  0.08729  1.0000
  Ti  Ti61      1.0  0.61924  0.23590  0.39634  1.0000
  Ti  Ti62      1.0  0.57887  0.50986  0.44938  1.0000
  Ti  Ti63      1.0  0.26219  0.61679  0.46060  1.0000
  Ti  Ti64      1.0  0.51974  0.40889  0.48844  1.0000
  Ti  Ti65      1.0  0.38925  0.07540  0.44552  1.0000
  Ti  Ti66      1.0  0.10734  0.10534  0.04027  1.0000
  Ti  Ti67      1.0  0.75148  0.80389  0.66702  1.0000
  Ti  Ti68      1.0  0.25560  0.48067  0.02278  1.0000
  Ti  Ti69      1.0  0.25981  0.71955  0.13208  1.0000
  Ti  Ti70      1.0  0.22350  0.87630  0.49712  1.0000
  Ti  Ti71      1.0  0.83350  0.44170  0.11715  1.0000
  Ti  Ti72      1.0  0.31392  0.13907  0.65137  1.0000
  Ti  Ti73      1.0  0.27963  0.70766  0.36658  1.0000
  Ti  Ti74      1.0  0.94835  0.99249  0.95923  1.0000
  Ti  Ti75      1.0  0.41804  0.03274  0.27967  1.0000
  Ti  Ti76      1.0  0.77317  0.61848  0.25095  1.0000
  Ti  Ti77      1.0  0.59993  0.31238  0.84530  1.0000
  Ti  Ti78      1.0  0.90514  0.56891  0.55649  1.0000
  Ti  Ti79      1.0  0.93738  0.93606  0.58975  1.0000
  Ti  Ti80      1.0  0.04794  0.51250  0.11885  1.0000
  Ti  Ti81      1.0  0.60001  0.27828  0.00986  1.0000
  Ti  Ti82      1.0  0.35964  0.72148  0.14863  1.0000
  Ti  Ti83      1.0  0.82396  0.13900  0.22852  1.0000
  Ti  Ti84      1.0  0.21450  0.85555  0.92755  1.0000
  Ti  Ti85      1.0  0.23945  0.93459  0.08238  1.0000
  Ti  Ti86      1.0  0.35265  0.41443  0.91737  1.0000
  Ti  Ti87      1.0  0.92147  0.81376  0.81659  1.0000
  Ti  Ti88      1.0  0.80424  0.17397  0.81517  1.0000
  Ti  Ti89      1.0  0.87426  0.06351  0.61951  1.0000
  Ti  Ti90      1.0  0.62248  0.96469  0.57063  1.0000
  Ti  Ti91      1.0  0.63667  0.32088  0.24045  1.0000
  Ti  Ti92      1.0  0.81511  0.32311  0.17772  1.0000
  Ti  Ti93      1.0  0.51414  0.82583  0.57294  1.0000
  Ti  Ti94      1.0  0.44478  0.95937  0.00953  1.0000
  Ti  Ti95      1.0  0.37370  0.81560  0.77302  1.0000
  Ti  Ti96      1.0  0.96892  0.11944  0.00628  1.0000
  I   I1        1.0  0.12177  0.65822  0.52647  1.0000
  I   I2        1.0  0.52937  0.98582  0.99204  1.0000
  I   I3        1.0  0.42479  0.99652  0.26558  1.0000
  I   I4        1.0  0.63494  0.37896  0.74366  1.0000
  I   I5        1.0  0.18526  0.84263  0.67813  1.0000
  I   I6        1.0  0.73237  0.96116  0.53953  1.0000
  I   I7        1.0  0.40455  0.64224  0.12651  1.0000
  I   I8        1.0  0.75807  0.09840  0.74167  1.0000
  I   I9        1.0  0.96201  0.16000  0.78858  1.0000
  I   I10       1.0  0.58320  0.03853  0.03739  1.0000
  I   I11       1.0  0.29854  0.81835  0.57144  1.0000
  I   I12       1.0  0.87404  0.44677  0.55007  1.0000
  I   I13       1.0  0.52260  0.54915  0.37158  1.0000
  I   I14       1.0  0.25931  0.64641  0.50223  1.0000
  I   I15       1.0  0.59490  0.33876  0.78365  1.0000
  I   I16       1.0  0.53533  0.07528  0.07338  1.0000
  I   I17       1.0  0.10861  0.11896  0.97845  1.0000
  I   I18       1.0  0.49794  0.41287  0.53750  1.0000
  I   I19       1.0  0.25096  0.63003  0.39969  1.0000
  I   I20       1.0  0.30999  0.78541  0.68419  1.0000
  I   I21       1.0  0.34184  0.66093  0.16716  1.0000
  I   I22       1.0  0.62720  0.25963  0.05256  1.0000
  I   I23       1.0  0.82444  0.18697  0.77985  1.0000
  I   I24       1.0  0.19788  0.88455  0.54525  1.0000
  I   I25       1.0  0.91587  0.99850  0.91134  1.0000
  I   I26       1.0  0.41838  0.98854  0.38519  1.0000
  I   I27       1.0  0.26233  0.09233  0.00513  1.0000
  I   I28       1.0  0.32439  0.21435  0.04487  1.0000
  I   I29       1.0  0.90010  0.54325  0.52628  1.0000
  I   I30       1.0  0.44746  0.59622  0.76104  1.0000
  I   I31       1.0  0.03301  0.49873  0.07852  1.0000
  I   I32       1.0  0.58713  0.25688  0.98495  1.0000
  I   I33       1.0  0.95481  0.93699  0.52947  1.0000
  I   I34       1.0  0.23397  0.06223  0.06211  1.0000
  I   I35       1.0  0.21073  0.87063  0.86671  1.0000
  I   I36       1.0  0.64374  0.69494  0.86335  1.0000
  I   I37       1.0  0.22013  0.96004  0.95335  1.0000
  I   I38       1.0  0.86860  0.29116  0.88941  1.0000
  I   I39       1.0  0.22326  0.93958  0.14826  1.0000
  I   I40       1.0  0.41432  0.49743  0.14542  1.0000
  I   I41       1.0  0.14798  0.31193  0.64310  1.0000
  I   I42       1.0  0.59063  0.05739  0.12646  1.0000
  I   I43       1.0  0.97481  0.79646  0.13332  1.0000
  I   I44       1.0  0.83615  0.19604  0.25683  1.0000
  I   I45       1.0  0.86311  0.11391  0.20969  1.0000
  I   I46       1.0  0.36713  0.84985  0.77382  1.0000
  I   I47       1.0  0.15233  0.60721  0.59784  1.0000
  I   I48       1.0  0.44040  0.98685  0.95702  1.0000
  I   I49       1.0  0.44780  0.00671  0.32834  1.0000
  I   I50       1.0  0.74567  0.09566  0.53773  1.0000
  I   I51       1.0  0.50841  0.02953  0.99931  1.0000
  I   I52       1.0  0.03493  0.54817  0.11111  1.0000
  I   I53       1.0  0.62372  0.39221  0.82317  1.0000
  I   I54       1.0  0.77618  0.93687  0.61072  1.0000
  I   I55       1.0  0.35340  0.40210  0.98314  1.0000
  I   I56       1.0  0.25495  0.57584  0.70612  1.0000
  I   I57       1.0  0.39384  0.79944  0.82989  1.0000
  I   I58       1.0  0.92753  0.25896  0.94181  1.0000
  I   I59       1.0  0.83211  0.67341  0.03634  1.0000
  I   I60       1.0  0.61066  0.15551  0.14640  1.0000
  I   I61       1.0  0.57756  0.48151  0.48289  1.0000
  I   I62       1.0  0.56740  0.54894  0.39204  1.0000
  I   I63       1.0  0.60847  0.79139  0.30736  1.0000
  I   I64       1.0  0.87275  0.67620  0.00791  1.0000
  I   I65       1.0  0.56039  0.02421  0.12291  1.0000
  I   I66       1.0  0.27118  0.24237  0.06246  1.0000
  I   I67       1.0  0.61054  0.19667  0.10071  1.0000
  I   I68       1.0  0.55465  0.81263  0.33495  1.0000
  I   I69       1.0  0.26713  0.67937  0.14286  1.0000
  I   I70       1.0  0.24937  0.88172  0.51928  1.0000
  I   I71       1.0  0.48028  0.04185  0.92093  1.0000
  I   I72       1.0  0.31591  0.11807  0.59924  1.0000
  I   I73       1.0  0.93473  0.80087  0.46041  1.0000
  I   I74       1.0  0.23843  0.70434  0.04574  1.0000
  I   I75       1.0  0.25421  0.75015  0.10692  1.0000
  I   I76       1.0  0.56805  0.34636  0.86326  1.0000
  I   I77       1.0  0.62047  0.32409  0.87094  1.0000
  I   I78       1.0  0.81652  0.92604  0.41713  1.0000
  I   I79       1.0  0.81587  0.26826  0.39051  1.0000
  I   I80       1.0  0.68236  0.47554  0.37029  1.0000
  I   I81       1.0  0.01732  0.27700  0.78711  1.0000
  I   I82       1.0  0.34991  0.72781  0.08084  1.0000
  I   I83       1.0  0.83246  0.15746  0.17530  1.0000
  I   I84       1.0  0.21046  0.84399  0.00776  1.0000
  I   I85       1.0  0.26285  0.93840  0.11723  1.0000
  I   I86       1.0  0.28414  0.19107  0.06737  1.0000
  I   I87       1.0  0.89174  0.23759  0.91773  1.0000
  I   I88       1.0  0.89000  0.29358  0.98535  1.0000
  I   I89       1.0  0.61487  0.66212  0.80219  1.0000
  I   I90       1.0  0.19231  0.31273  0.61304  1.0000
  I   I91       1.0  0.67285  0.29774  0.23854  1.0000
  I   I92       1.0  0.81837  0.35573  0.17197  1.0000
  I   I93       1.0  0.44999  0.46330  0.22173  1.0000
  I   I94       1.0  0.47711  0.92612  0.01556  1.0000
  I   I95       1.0  0.67798  0.80297  0.49945  1.0000
  I   I96       1.0  0.46186  0.17160  0.08556  1.0000
  I   I97       1.0  0.93534  0.04600  0.12100  1.0000
  I   I98       1.0  0.63907  0.49036  0.46123  1.0000
  I   I99       1.0  0.71871  0.07811  0.62026  1.0000
  I   I100      1.0  0.47671  0.83517  0.87485  1.0000
  I   I101      1.0  0.82510  0.15335  0.86904  1.0000
  I   I102      1.0  0.91581  0.44673  0.61879  1.0000
  I   I103      1.0  0.38709  0.40391  0.92228  1.0000
  I   I104      1.0  0.03341  0.75423  0.91697  1.0000
  I   I105      1.0  0.40899  0.84968  0.62470  1.0000
  I   I106      1.0  0.56519  0.87995  0.53326  1.0000
  I   I107      1.0  0.87702  0.25339  0.02894  1.0000
  I   I108      1.0  0.51155  0.89792  0.45645  1.0000
  I   I109      1.0  0.65904  0.29107  0.81016  1.0000
  I   I110      1.0  0.58848  0.52045  0.50334  1.0000
  I   I111      1.0  0.55563  0.80011  0.23824  1.0000
  I   I112      1.0  0.51891  0.40203  0.41613  1.0000
  I   I113      1.0  0.40259  0.04424  0.48195  1.0000
  I   I114      1.0  0.60194  0.05289  0.58053  1.0000
  I   I115      1.0  0.77861  0.77677  0.63690  1.0000
  I   I116      1.0  0.74918  0.82484  0.61418  1.0000
  I   I117      1.0  0.23406  0.47319  0.98227  1.0000
  I   I118      1.0  0.93962  0.12418  0.98267  1.0000
  I   I119      1.0  0.71553  0.81642  0.68250  1.0000
  I   I120      1.0  0.15107  0.60844  0.49012  1.0000
  I   I121      1.0  0.25535  0.69815  0.39415  1.0000
  I   I122      1.0  0.97936  0.98246  0.84304  1.0000
  I   I123      1.0  0.44048  0.03059  0.22954  1.0000
  I   I124      1.0  0.47228  0.60655  0.84852  1.0000
  I   I125      1.0  0.76524  0.64645  0.29326  1.0000
  I   I126      1.0  0.87322  0.59615  0.56957  1.0000
  I   I127      1.0  0.85982  0.21145  0.38331  1.0000
  I   I128      1.0  0.47150  0.84171  0.97506  1.0000
  I   I129      1.0  0.47812  0.07530  0.04199  1.0000
  I   I130      1.0  0.26445  0.79325  0.94427  1.0000
  I   I131      1.0  0.33237  0.75845  0.15820  1.0000
  I   I132      1.0  0.23704  0.11268  0.10298  1.0000
  I   I133      1.0  0.92287  0.25344  0.04824  1.0000
  I   I134      1.0  0.53559  0.65132  0.66250  1.0000
  I   I135      1.0  0.11634  0.09428  0.10702  1.0000
  I   I136      1.0  0.38887  0.47514  0.61586  1.0000
  I   I137      1.0  0.84580  0.46247  0.44565  1.0000
  I   I138      1.0  0.89920  0.03260  0.59281  1.0000
  I   I139      1.0  0.62841  0.32585  0.30785  1.0000
  I   I140      1.0  0.84776  0.29481  0.16887  1.0000
  I   I141      1.0  0.48077  0.83687  0.54291  1.0000
  I   I142      1.0  0.42313  0.94588  0.99072  1.0000
  I   I143      1.0  0.97384  0.04447  0.14006  1.0000
  I   I144      1.0  0.51258  0.17797  0.07635  1.0000
  I   I145      1.0  0.68652  0.42944  0.44759  1.0000
  I   I146      1.0  0.69621  0.09345  0.52898  1.0000
  I   I147      1.0  0.99088  0.99490  0.16317  1.0000
  I   I148      1.0  0.90682  0.43354  0.43409  1.0000
  I   I149      1.0  0.92109  0.41847  0.52877  1.0000
  I   I150      1.0  0.21988  0.87134  0.70478  1.0000
  I   I151      1.0  0.08508  0.72762  0.01128  1.0000
  I   I152      1.0  0.36284  0.63817  0.06879  1.0000
  I   I153      1.0  0.95879  0.20827  0.72006  1.0000
  I   I154      1.0  0.35898  0.61538  0.34515  1.0000
  I   I155      1.0  0.26292  0.80890  0.65713  1.0000
  I   I156      1.0  0.64673  0.11919  0.08383  1.0000
  I   I157      1.0  0.61367  0.28779  0.78604  1.0000
  I   I158      1.0  0.25603  0.59118  0.49617  1.0000
  I   I159      1.0  0.65247  0.22821  0.36956  1.0000
  I   I160      1.0  0.51981  0.37517  0.48872  1.0000
  I   I161      1.0  0.61815  0.93677  0.52427  1.0000
  I   I162      1.0  0.52644  0.46933  0.41243  1.0000
  I   I163      1.0  0.65568  0.14358  0.18246  1.0000
  I   I164      1.0  0.68417  0.75832  0.53044  1.0000
  I   I165      1.0  0.27259  0.62356  0.67079  1.0000
  I   I166      1.0  0.96907  0.15180  0.99728  1.0000
  I   I167      1.0  0.59513  0.31159  0.99809  1.0000
  I   I168      1.0  0.89644  0.36353  0.66519  1.0000
  I   I169      1.0  0.92189  0.02487  0.99218  1.0000
  I   I170      1.0  0.98250  0.97235  0.93158  1.0000
  I   I171      1.0  0.95444  0.75247  0.50595  1.0000
  I   I172      1.0  0.74229  0.64022  0.21181  1.0000
  I   I173      1.0  0.84205  0.73481  0.18823  1.0000
  I   I174      1.0  0.42602  0.59860  0.87246  1.0000
  I   I175      1.0  0.76227  0.96022  0.36387  1.0000
  I   I176      1.0  0.00909  0.32806  0.84223  1.0000
  I   I177      1.0  0.93342  0.96505  0.62968  1.0000
  I   I178      1.0  0.35041  0.70704  0.20068  1.0000
  I   I179      1.0  0.87774  0.14524  0.26400  1.0000
  I   I180      1.0  0.22083  0.90727  0.94396  1.0000
  I   I181      1.0  0.51694  0.88994  0.53574  1.0000
  I   I182      1.0  0.30993  0.42758  0.78007  1.0000
  I   I183      1.0  0.95864  0.79636  0.79069  1.0000
  I   I184      1.0  0.78465  0.20764  0.84000  1.0000
  I   I185      1.0  0.83963  0.07689  0.64129  1.0000
  I   I186      1.0  0.35881  0.53927  0.61823  1.0000
  I   I187      1.0  0.79650  0.31497  0.13540  1.0000
  I   I188      1.0  0.40061  0.51911  0.22770  1.0000
  I   I189      1.0  0.91437  0.79548  0.87200  1.0000
  I   I190      1.0  0.63377  0.79171  0.50026  1.0000
  I   I191      1.0  0.63132  0.99060  0.60010  1.0000
  I   I192      1.0  0.93473  0.00866  0.16989  1.0000
  I   I193      1.0  0.91960  0.55502  0.61502  1.0000
  I   I194      1.0  0.57755  0.75541  0.29211  1.0000
  I   I195      1.0  0.94265  0.04627  0.22124  1.0000
  I   I196      1.0  0.39093  0.87616  0.03430  1.0000
  I   I197      1.0  0.01706  0.75406  0.09705  1.0000
  I   I198      1.0  0.16984  0.89503  0.64977  1.0000
  I   I199      1.0  0.05502  0.29095  0.78641  1.0000
  I   I200      1.0  0.71458  0.14249  0.70391  1.0000
  I   I201      1.0  0.92352  0.19420  0.88880  1.0000
  I   I202      1.0  0.86103  0.68360  0.10574  1.0000
  I   I203      1.0  0.29722  0.67602  0.02584  1.0000
  I   I204      1.0  0.51824  0.93900  0.50726  1.0000
  I   I205      1.0  0.56041  0.48844  0.39889  1.0000
  I   I206      1.0  0.44169  0.88229  0.87251  1.0000
  I   I207      1.0  0.63008  0.31169  0.71504  1.0000
  I   I208      1.0  0.85804  0.72474  0.03894  1.0000
  I   I209      1.0  0.65847  0.94089  0.57020  1.0000
  I   I210      1.0  0.92294  0.91489  0.59274  1.0000
  I   I211      1.0  0.21682  0.90099  0.43885  1.0000
  I   I212      1.0  0.29789  0.59862  0.44450  1.0000
  I   I213      1.0  0.22412  0.72671  0.13172  1.0000
  I   I214      1.0  0.48457  0.18560  0.15967  1.0000
  I   I215      1.0  0.44732  0.08465  0.94854  1.0000
  I   I216      1.0  0.53596  0.83519  0.61342  1.0000
  I   I217      1.0  0.94434  0.96502  0.84165  1.0000
  I   I218      1.0  0.41233  0.06625  0.30178  1.0000
  I   I219      1.0  0.28464  0.68366  0.31672  1.0000
  I   I220      1.0  0.59077  0.28575  0.86541  1.0000
  I   I221      1.0  0.89583  0.72451  0.19401  1.0000
  I   I222      1.0  0.80343  0.61260  0.22596  1.0000
  I   I223      1.0  0.82536  0.91897  0.31878  1.0000
  I   I224      1.0  0.01659  0.33440  0.73671  1.0000
  I   I225      1.0  0.86351  0.23152  0.47107  1.0000
  I   I226      1.0  0.38091  0.68802  0.10822  1.0000
  I   I227      1.0  0.21095  0.10972  0.00176  1.0000
  I   I228      1.0  0.21515  0.82348  0.91749  1.0000
  I   I229      1.0  0.02414  0.80240  0.10716  1.0000
  I   I230      1.0  0.50081  0.64129  0.71024  1.0000
  I   I231      1.0  0.92870  0.21911  0.96680  1.0000
  I   I232      1.0  0.42567  0.83863  0.90583  1.0000
  I   I233      1.0  0.43421  0.83028  0.51219  1.0000
  I   I234      1.0  0.56826  0.04667  0.53472  1.0000
  I   I235      1.0  0.40528  0.57419  0.39636  1.0000
  I   I236      1.0  0.54834  0.79394  0.55404  1.0000
  I   I237      1.0  0.59739  0.33365  0.24376  1.0000
  I   I238      1.0  0.33777  0.82226  0.76166  1.0000
  I   I239      1.0  0.98595  0.08271  0.02012  1.0000
  I   I240      1.0  0.47387  0.96597  0.03606  1.0000
  I   I241      1.0  0.68058  0.47845  0.48076  1.0000
  I   I242      1.0  0.71103  0.13391  0.59643  1.0000
  I   I243      1.0  0.23787  0.51462  0.04324  1.0000
  I   I244      1.0  0.77955  0.17189  0.77460  1.0000
  I   I245      1.0  0.68845  0.36563  0.77433  1.0000
  I   I246      1.0  0.17191  0.90490  0.74514  1.0000
  I   I247      1.0  0.31223  0.38032  0.80930  1.0000
  I   I248      1.0  0.23075  0.63289  0.74155  1.0000
  I   I249      1.0  0.93452  0.17915  0.71373  1.0000
  I   I250      1.0  0.81709  0.67450  0.93090  1.0000
  I   I251      1.0  0.32244  0.80923  0.64483  1.0000
  I   I252      1.0  0.65728  0.15628  0.07736  1.0000
  I   I253      1.0  0.59627  0.49734  0.37928  1.0000
  I   I254      1.0  0.38375  0.87904  0.94578  1.0000
  I   I255      1.0  0.59876  0.26975  0.36944  1.0000
  I   I256      1.0  0.35929  0.09322  0.47593  1.0000
  I   I257      1.0  0.26753  0.91709  0.93526  1.0000
  I   I258      1.0  0.55441  0.41469  0.38057  1.0000
  I   I259      1.0  0.77161  0.80894  0.71706  1.0000
  I   I260      1.0  0.64728  0.81118  0.59052  1.0000
  I   I261      1.0  0.28152  0.60028  0.76747  1.0000
  I   I262      1.0  0.45880  0.22689  0.08253  1.0000
  I   I263      1.0  0.81706  0.42386  0.09104  1.0000
  I   I264      1.0  0.26733  0.81685  0.02072  1.0000
  I   I265      1.0  0.93993  0.96959  0.99134  1.0000
  I   I266      1.0  0.26168  0.65101  0.06031  1.0000
  I   I267      1.0  0.28905  0.72347  0.41849  1.0000
  I   I268      1.0  0.07202  0.12658  0.05000  1.0000
  I   I269      1.0  0.92552  0.57210  0.50415  1.0000
  I   I270      1.0  0.28409  0.23325  0.96742  1.0000
  I   I271      1.0  0.80053  0.89704  0.36356  1.0000
  I   I272      1.0  0.61899  0.26672  0.95228  1.0000
  I   I273      1.0  0.82036  0.22510  0.45934  1.0000
  I   I274      1.0  0.38592  0.87267  0.49789  1.0000
  I   I275      1.0  0.97177  0.79181  0.55479  1.0000
  I   I276      1.0  0.18328  0.88953  0.94290  1.0000
  I   I277      1.0  0.37955  0.73696  0.14939  1.0000
  I   I278      1.0  0.47713  0.67882  0.65079  1.0000
  I   I279      1.0  0.40392  0.45705  0.20587  1.0000
  I   I280      1.0  0.85802  0.45051  0.35070  1.0000
  I   I281      1.0  0.38257  0.84056  0.54227  1.0000
  I   I282      1.0  0.40391  0.50351  0.68963  1.0000
  I   I283      1.0  0.35404  0.57585  0.39733  1.0000
  I   I284      1.0  0.84643  0.40949  0.68025  1.0000
  I   I285      1.0  0.89345  0.84984  0.81063  1.0000
  I   I286      1.0  0.40272  0.80116  0.73404  1.0000
  I   I287      1.0  0.30690  0.11748  0.69057  1.0000
  I   I288      1.0  0.47038  0.93770  0.92273  1.0000
  I   I289      1.0  0.39402  0.56249  0.30224  1.0000
  I   I290      1.0  0.61778  0.94694  0.62586  1.0000
  I   I291      1.0  0.46909  0.00531  0.97926  1.0000
  I   I292      1.0  0.87711  0.48913  0.41229  1.0000
  I   I293      1.0  0.66699  0.37778  0.86151  1.0000
  I   I294      1.0  0.77474  0.98171  0.54172  1.0000
  I   I295      1.0  0.33755  0.43135  0.84590  1.0000
  I   I296      1.0  0.70720  0.10447  0.77100  1.0000
  I   I297      1.0  0.90182  0.22123  0.79664  1.0000
  I   I298      1.0  0.98268  0.78951  0.02863  1.0000
  I   I299      1.0  0.86788  0.63906  0.96033  1.0000
  I   I300      1.0  0.51050  0.80383  0.62522  1.0000
  I   I301      1.0  0.58932  0.23450  0.43546  1.0000
  I   I302      1.0  0.54503  0.53720  0.46351  1.0000
  I   I303      1.0  0.38397  0.05902  0.39443  1.0000
  I   I304      1.0  0.54910  0.41751  0.48581  1.0000
  I   I305      1.0  0.80677  0.72595  0.06647  1.0000
  I   I306      1.0  0.27787  0.42412  0.84232  1.0000
  I   I307      1.0  0.21378  0.93636  0.03318  1.0000
  I   I308      1.0  0.14028  0.36392  0.62670  1.0000
  I   I309      1.0  0.37332  0.61527  0.15586  1.0000
  I   I310      1.0  0.42316  0.94694  0.31633  1.0000
  I   I311      1.0  0.84959  0.45065  0.06850  1.0000
  I   I312      1.0  0.09825  0.62555  0.54544  1.0000
  I   I313      1.0  0.27465  0.73803  0.33031  1.0000
  I   I314      1.0  0.94911  0.01824  0.90737  1.0000
  I   I315      1.0  0.38445  0.05041  0.24401  1.0000
  I   I316      1.0  0.76406  0.59314  0.26907  1.0000
  I   I317      1.0  0.11942  0.06987  0.02508  1.0000
  I   I318      1.0  0.85659  0.75434  0.27210  1.0000
  I   I319      1.0  0.89959  0.96225  0.58549  1.0000
  I   I320      1.0  0.43386  0.83030  0.02251  1.0000
  I   I321      1.0  0.09929  0.71137  0.91937  1.0000
  I   I322      1.0  0.61121  0.66771  0.88852  1.0000
  I   I323      1.0  0.80328  0.17691  0.25052  1.0000
  I   I324      1.0  0.25429  0.84988  0.92858  1.0000
  I   I325      1.0  0.25967  0.89901  0.03279  1.0000
  I   I326      1.0  0.34262  0.38927  0.88827  1.0000
  I   I327      1.0  0.80655  0.12605  0.26518  1.0000
  I   I328      1.0  0.84603  0.27448  0.95927  1.0000
  I   I329      1.0  0.88988  0.07508  0.55744  1.0000
  I   I330      1.0  0.58546  0.00314  0.60182  1.0000
  I   I331      1.0  0.90638  0.79528  0.78156  1.0000
  I   I332      1.0  0.61204  0.99749  0.50770  1.0000
  I   I333      1.0  0.59608  0.71780  0.81463  1.0000
  I   I334      1.0  0.42144  0.98393  0.05823  1.0000
  I   I335      1.0  0.26337  0.44680  0.04922  1.0000
  I   I336      1.0  0.95837  0.13091  0.07041  1.0000
  I   I337      1.0  0.46721  0.94960  0.30459  1.0000
  I   I338      1.0  0.18675  0.34653  0.68465  1.0000
  I   I339      1.0  0.51629  0.00913  0.89627  1.0000
  I   I340      1.0  0.04692  0.49685  0.17992  1.0000
  I   I341      1.0  0.88511  0.41521  0.64830  1.0000
  I   I342      1.0  0.78037  0.92102  0.52356  1.0000
  I   I343      1.0  0.05282  0.70879  0.97506  1.0000
  I   I344      1.0  0.71545  0.14591  0.81471  1.0000
  I   I345      1.0  0.94882  0.21199  0.81648  1.0000
  I   I346      1.0  0.22974  0.84436  0.47452  1.0000
  I   I347      1.0  0.82267  0.71610  0.96405  1.0000
  I   I348      1.0  0.61244  0.20173  0.21502  1.0000
  I   I349      1.0  0.60708  0.21659  0.35746  1.0000
  I   I350      1.0  0.56662  0.53052  0.30356  1.0000
  I   I351      1.0  0.42560  0.88181  0.96676  1.0000
  I   I352      1.0  0.49716  0.44771  0.46577  1.0000
  I   I353      1.0  0.40458  0.09630  0.40875  1.0000
  I   I354      1.0  0.32918  0.44949  0.92842  1.0000
  I   I355      1.0  0.65084  0.19088  0.15508  1.0000
  I   I356      1.0  0.28763  0.47317  0.99435  1.0000
  I   I357      1.0  0.29211  0.69625  0.10170  1.0000
  I   I358      1.0  0.90350  0.39292  0.57191  1.0000
  I   I359      1.0  0.85283  0.42022  0.17362  1.0000
  I   I360      1.0  0.35011  0.12185  0.64662  1.0000
  I   I361      1.0  0.91007  0.79398  0.55592  1.0000
  I   I362      1.0  0.96213  0.00529  0.01438  1.0000
  I   I363      1.0  0.26313  0.73098  0.19682  1.0000
  I   I364      1.0  0.47228  0.55227  0.81988  1.0000
  I   I365      1.0  0.64557  0.33831  0.79411  1.0000
  I   I366      1.0  0.86350  0.69740  0.26870  1.0000
  I   I367      1.0  0.97520  0.90933  0.60123  1.0000
  I   I368      1.0  0.07929  0.48791  0.09042  1.0000
  I   I369      1.0  0.49588  0.08896  0.95534  1.0000
  I   I370      1.0  0.92116  0.15936  0.80996  1.0000
  I   I371      1.0  0.81085  0.12704  0.17634  1.0000
  I   I372      1.0  0.85950  0.37466  0.59770  1.0000
  I   I373      1.0  0.22304  0.97043  0.06369  1.0000
  I   I374      1.0  0.51857  0.60659  0.63594  1.0000
  I   I375      1.0  0.83472  0.14638  0.30068  1.0000
  I   I376      1.0  0.81995  0.47362  0.15649  1.0000
  I   I377      1.0  0.88932  0.07241  0.66882  1.0000
  I   I378      1.0  0.34742  0.50655  0.69515  1.0000
  I   I379      1.0  0.63660  0.35374  0.23613  1.0000
  I   I380      1.0  0.81340  0.31807  0.24491  1.0000
  I   I381      1.0  0.59253  0.16712  0.04338  1.0000
  I   I382      1.0  0.49325  0.97082  0.91758  1.0000
  I   I383      1.0  0.30219  0.76448  0.61230  1.0000
  I   I384      1.0  0.29623  0.16923  0.68431  1.0000
