data_image0
_chemical_formula_structural       Ti96I384
_chemical_formula_sum              "Ti96 I384"
_cell_length_a       74.8946
_cell_length_b       74.8664
_cell_length_c       36.6624
_cell_angle_alpha    88.7757
_cell_angle_beta     88.7757
_cell_angle_gamma    62.1586

_space_group_name_H-M_alt    "P 1"
_space_group_IT_number       1

loop_
  _space_group_symop_operation_xyz
  'x, y, z'

loop_
  _atom_site_type_symbol
  _atom_site_label
  _atom_site_symmetry_multiplicity
  _atom_site_fract_x
  _atom_site_fract_y
  _atom_site_fract_z
  _atom_site_occupancy
  Ti  Ti1       1.0  0.77853  0.18590  0.88511  1.0000
  Ti  Ti2       1.0  0.47327  0.69729  0.51874  1.0000
  Ti  Ti3       1.0  0.11513  0.97842  0.32029  1.0000
  Ti  Ti4       1.0  0.10783  0.26251  0.05163  1.0000
  Ti  Ti5       1.0  0.21866  0.05933  0.80146  1.0000
  Ti  Ti6       1.0  0.44185  0.36692  0.29958  1.0000
  Ti  Ti7       1.0  0.68163  0.10106  0.99269  1.0000
  Ti  Ti8       1.0  0.30632  0.73908  0.17422  1.0000
  Ti  Ti9       1.0  0.19367  0.41768  0.62877  1.0000
  Ti  Ti10      1.0  0.60124  0.78317  0.33722  1.0000
  Ti  Ti11      1.0  0.32497  0.05256  0.63337  1.0000
  Ti  Ti12      1.0  0.93373  0.15830  0.50559  1.0000
  Ti  Ti13      1.0  0.75089  0.72524  0.44118  1.0000
  Ti  Ti14      1.0  0.10497  0.30683  0.13911  1.0000
  Ti  Ti15      1.0  0.83706  0.50301  0.66489  1.0000
  Ti  Ti16      1.0  0.20178  0.52165  0.39505  1.0000
  Ti  Ti17      1.0  0.07183  0.95896  0.54599  1.0000
  Ti  Ti18      1.0  0.29135  0.18643  0.18594  1.0000
  Ti  Ti19      1.0  0.88547  0.05360  0.84864  1.0000
  Ti  Ti20      1.0  0.18645  0.51441  0.99851  1.0000
  Ti  Ti21      1.0  0.27571  0.72291  0.09342  1.0000
  Ti  Ti22      1.0  0.81973  0.36155  0.69200  1.0000
  Ti  Ti23      1.0  0.10731  0.74849  0.70798  1.0000
  Ti  Ti24      1.0  0.73585  0.32037  0.19969  1.0000
  Ti  Ti25      1.0  0.72091  0.54374  0.39976  1.0000
  Ti  Ti26      1.0  0.86111  0.94747  0.88087  1.0000
  Ti  Ti27      1.0  0.44555  0.52617  0.05763  1.0000
  Ti  Ti28      1.0  0.42818  0.11502  0.76158  1.0000
  Ti  Ti29      1.0  0.32854  0.92989  0.36630  1.0000
  Ti  Ti30      1.0  0.37155  0.86385  0.96683  1.0000
  Ti  Ti31      1.0  0.46708  0.53977  0.32672  1.0000
  Ti  Ti32      1.0  0.54400  0.74084  0.13516  1.0000
  Ti  Ti33      1.0  0.51739  0.44630  0.49068  1.0000
  Ti  Ti34      1.0  0.76681  0.60813  0.99942  1.0000
  Ti  Ti35      1.0  0.77020  0.72736  0.12601  1.0000
  Ti  Ti36      1.0  0.39272  0.23680  0.53281  1.0000
  Ti  Ti37      1.0  0.90573  0.60129  0.63932  1.0000
  Ti  Ti38      1.0  0.21316  0.37075  0.11777  1.0000
  Ti  Ti39      1.0  0.89069  0.43710  0.87717  1.0000
  Ti  Ti40      1.0  0.63554  0.72233  0.33771  1.0000
  Ti  Ti41      1.0  0.90676  0.51859  0.39858  1.0000
  Ti  Ti42      1.0  0.95735  0.59130  0.24012  1.0000
  Ti  Ti43      1.0  0.01976  0.85881  0.67842  1.0000
  Ti  Ti44      1.0  0.90762  0.37446  0.26208  1.0000
  Ti  Ti45      1.0  0.41110  0.17433  0.18486  1.0000
  Ti  Ti46      1.0  0.68909  0.00523  0.03946  1.0000
  Ti  Ti47      1.0  0.12816  0.90042  0.83518  1.0000
  Ti  Ti48      1.0  0.04219  0.08343  0.78660  1.0000
  Ti  Ti49      1.0  0.00300  0.91667  0.63053  1.0000
  Ti  Ti50      1.0  0.07265  0.16174  0.45344  1.0000
  Ti  Ti51      1.0  0.43700  0.65780  0.53472  1.0000
  Ti  Ti52      1.0  0.62178  0.44831  0.77673  1.0000
  Ti  Ti53      1.0  0.18659  0.81711  0.61535  1.0000
  Ti  Ti54      1.0  0.44620  0.91114  0.32451  1.0000
  Ti  Ti55      1.0  0.54760  0.77080  0.07040  1.0000
  Ti  Ti56      1.0  0.59385  0.87475  0.09389  1.0000
  Ti  Ti57      1.0  0.19323  0.41566  0.55696  1.0000
  Ti  Ti58      1.0  0.34464  0.88676  0.61633  1.0000
  Ti  Ti59      1.0  0.48015  0.51177  0.77507  1.0000
  Ti  Ti60      1.0  0.97066  0.10848  0.53634  1.0000
  Ti  Ti61      1.0  0.76044  0.76790  0.88010  1.0000
  Ti  Ti62      1.0  0.75521  0.76739  0.44488  1.0000
  Ti  Ti63      1.0  0.11740  0.55827  0.06393  1.0000
  Ti  Ti64      1.0  0.28569  0.14573  0.22805  1.0000
  Ti  Ti65      1.0  0.07840  0.84806  0.08138  1.0000
  Ti  Ti66      1.0  0.35413  0.26115  0.34538  1.0000
  Ti  Ti67      1.0  0.18173  0.19432  0.36613  1.0000
  Ti  Ti68      1.0  0.44936  0.26221  0.24811  1.0000
  Ti  Ti69      1.0  0.89400  0.91576  0.95697  1.0000
  Ti  Ti70      1.0  0.18683  0.15575  0.30163  1.0000
  Ti  Ti71      1.0  0.86736  0.76685  0.12754  1.0000
  Ti  Ti72      1.0  0.16319  0.90592  0.79669  1.0000
  Ti  Ti73      1.0  0.47223  0.48791  0.10320  1.0000
  Ti  Ti74      1.0  0.73905  0.50773  0.45509  1.0000
  Ti  Ti75      1.0  0.42837  0.16802  0.95221  1.0000
  Ti  Ti76      1.0  0.39428  0.12290  0.72839  1.0000
  Ti  Ti77      1.0  0.79543  0.48751  0.59534  1.0000
  Ti  Ti78      1.0  0.28203  0.90635  0.34082  1.0000
  Ti  Ti79      1.0  0.32993  0.77557  0.72629  1.0000
  Ti  Ti80      1.0  0.31571  0.99520  0.02679  1.0000
  Ti  Ti81      1.0  0.83578  0.62785  0.86077  1.0000
  Ti  Ti82      1.0  0.76553  0.38162  0.34522  1.0000
  Ti  Ti83      1.0  0.03325  0.43296  0.72134  1.0000
  Ti  Ti84      1.0  0.41335  0.20412  0.58796  1.0000
  Ti  Ti85      1.0  0.91328  0.55954  0.62404  1.0000
  Ti  Ti86      1.0  0.64959  0.15213  0.92724  1.0000
  Ti  Ti87      1.0  0.42306  0.13901  0.09122  1.0000
  Ti  Ti88      1.0  0.56913  0.08041  0.50614  1.0000
  Ti  Ti89      1.0  0.30385  0.46629  0.11365  1.0000
  Ti  Ti90      1.0  0.08628  0.45939  0.09957  1.0000
  Ti  Ti91      1.0  0.20058  0.82245  0.22844  1.0000
  Ti  Ti92      1.0  0.83624  0.17454  0.54417  1.0000
  Ti  Ti93      1.0  0.67806  0.39996  0.47926  1.0000
  Ti  Ti94      1.0  0.00150  0.09400  0.76461  1.0000
  Ti  Ti95      1.0  0.92226  0.38111  0.63190  1.0000
  Ti  Ti96      1.0  0.84358  0.31608  0.73943  1.0000
  I   I1        1.0  0.18132  0.88995  0.85934  1.0000
  I   I2        1.0  0.48512  0.71053  0.46392  1.0000
  I   I3        1.0  0.00051  0.94143  0.67825  1.0000
  I   I4        1.0  0.19344  0.83157  0.54781  1.0000
  I   I5        1.0  0.46060  0.38746  0.27031  1.0000
  I   I6        1.0  0.41118  0.91017  0.32358  1.0000
  I   I7        1.0  0.33194  0.74368  0.13222  1.0000
  I   I8        1.0  0.56037  0.90039  0.13201  1.0000
  I   I9        1.0  0.16474  0.45444  0.59001  1.0000
  I   I10       1.0  0.57086  0.80649  0.37748  1.0000
  I   I11       1.0  0.29951  0.06384  0.68928  1.0000
  I   I12       1.0  0.18312  0.06979  0.81905  1.0000
  I   I13       1.0  0.72616  0.78441  0.48542  1.0000
  I   I14       1.0  0.13109  0.52148  0.09034  1.0000
  I   I15       1.0  0.81573  0.49613  0.54469  1.0000
  I   I16       1.0  0.58905  0.81872  0.29277  1.0000
  I   I17       1.0  0.34708  0.27918  0.40572  1.0000
  I   I18       1.0  0.25572  0.18436  0.20317  1.0000
  I   I19       1.0  0.21190  0.52829  0.01953  1.0000
  I   I20       1.0  0.35568  0.02975  0.68501  1.0000
  I   I21       1.0  0.30035  0.77760  0.19103  1.0000
  I   I22       1.0  0.07109  0.75643  0.69715  1.0000
  I   I23       1.0  0.87702  0.72771  0.12154  1.0000
  I   I24       1.0  0.16560  0.16598  0.37506  1.0000
  I   I25       1.0  0.73847  0.56613  0.38979  1.0000
  I   I26       1.0  0.43784  0.18138  0.89086  1.0000
  I   I27       1.0  0.44330  0.48834  0.05798  1.0000
  I   I28       1.0  0.46205  0.12245  0.76067  1.0000
  I   I29       1.0  0.24528  0.92372  0.32011  1.0000
  I   I30       1.0  0.36285  0.89820  0.94204  1.0000
  I   I31       1.0  0.33666  0.96450  0.06990  1.0000
  I   I32       1.0  0.86068  0.64107  0.87180  1.0000
  I   I33       1.0  0.29209  0.77505  0.72104  1.0000
  I   I34       1.0  0.74194  0.72304  0.09316  1.0000
  I   I35       1.0  0.44213  0.20583  0.64075  1.0000
  I   I36       1.0  0.73381  0.63624  0.02504  1.0000
  I   I37       1.0  0.94039  0.56968  0.58640  1.0000
  I   I38       1.0  0.85690  0.44808  0.90994  1.0000
  I   I39       1.0  0.90673  0.52911  0.61425  1.0000
  I   I40       1.0  0.92350  0.39709  0.26031  1.0000
  I   I41       1.0  0.08478  0.42549  0.11396  1.0000
  I   I42       1.0  0.65046  0.72567  0.40995  1.0000
  I   I43       1.0  0.34594  0.87275  0.68185  1.0000
  I   I44       1.0  0.93618  0.34834  0.22314  1.0000
  I   I45       1.0  0.43461  0.16254  0.24149  1.0000
  I   I46       1.0  0.95773  0.35484  0.58592  1.0000
  I   I47       1.0  0.13823  0.86587  0.86555  1.0000
  I   I48       1.0  0.02373  0.10988  0.72786  1.0000
  I   I49       1.0  0.04387  0.81721  0.68019  1.0000
  I   I50       1.0  0.47138  0.66155  0.48796  1.0000
  I   I51       1.0  0.50582  0.66735  0.54128  1.0000
  I   I52       1.0  0.30123  0.02485  0.07338  1.0000
  I   I53       1.0  0.21805  0.78162  0.62376  1.0000
  I   I54       1.0  0.43570  0.94801  0.33284  1.0000
  I   I55       1.0  0.68293  0.13448  0.00005  1.0000
  I   I56       1.0  0.28203  0.73120  0.02843  1.0000
  I   I57       1.0  0.88745  0.41028  0.66193  1.0000
  I   I58       1.0  0.63470  0.77646  0.36372  1.0000
  I   I59       1.0  0.45565  0.54556  0.79880  1.0000
  I   I60       1.0  0.98465  0.10599  0.59899  1.0000
  I   I61       1.0  0.73314  0.70751  0.39710  1.0000
  I   I62       1.0  0.75349  0.79334  0.39490  1.0000
  I   I63       1.0  0.08755  0.58375  0.10374  1.0000
  I   I64       1.0  0.21425  0.50229  0.45661  1.0000
  I   I65       1.0  0.04642  0.88668  0.06493  1.0000
  I   I66       1.0  0.38759  0.26125  0.33643  1.0000
  I   I67       1.0  0.89045  0.02679  0.89830  1.0000
  I   I68       1.0  0.19957  0.47954  0.03446  1.0000
  I   I69       1.0  0.92711  0.87756  0.94404  1.0000
  I   I70       1.0  0.15848  0.19631  0.28668  1.0000
  I   I71       1.0  0.12868  0.76366  0.66914  1.0000
  I   I72       1.0  0.15514  0.87203  0.77797  1.0000
  I   I73       1.0  0.47298  0.53990  0.05565  1.0000
  I   I74       1.0  0.87185  0.97579  0.86893  1.0000
  I   I75       1.0  0.84980  0.93263  0.82589  1.0000
  I   I76       1.0  0.76124  0.51535  0.59956  1.0000
  I   I77       1.0  0.84419  0.50884  0.73498  1.0000
  I   I78       1.0  0.75686  0.16528  0.90858  1.0000
  I   I79       1.0  0.48717  0.47284  0.44056  1.0000
  I   I80       1.0  0.45050  0.57946  0.32487  1.0000
  I   I81       1.0  0.51240  0.76225  0.17108  1.0000
  I   I82       1.0  0.74637  0.36621  0.38939  1.0000
  I   I83       1.0  0.00835  0.46840  0.73528  1.0000
  I   I84       1.0  0.42663  0.16674  0.60619  1.0000
  I   I85       1.0  0.89696  0.58156  0.68929  1.0000
  I   I86       1.0  0.34158  0.23261  0.34676  1.0000
  I   I87       1.0  0.90141  0.40153  0.85270  1.0000
  I   I88       1.0  0.61514  0.70264  0.33030  1.0000
  I   I89       1.0  0.93474  0.47730  0.38587  1.0000
  I   I90       1.0  0.08907  0.47017  0.16494  1.0000
  I   I91       1.0  0.23485  0.79713  0.26193  1.0000
  I   I92       1.0  0.80909  0.16446  0.55652  1.0000
  I   I93       1.0  0.87291  0.39544  0.22852  1.0000
  I   I94       1.0  0.97011  0.12847  0.78277  1.0000
  I   I95       1.0  0.72693  0.98134  0.03941  1.0000
  I   I96       1.0  0.85147  0.34687  0.73637  1.0000
  I   I97       1.0  0.11329  0.96012  0.38431  1.0000
  I   I98       1.0  0.77139  0.18675  0.81350  1.0000
  I   I99       1.0  0.43208  0.64244  0.47162  1.0000
  I   I100      1.0  0.12094  0.22379  0.05977  1.0000
  I   I101      1.0  0.53288  0.10948  0.53166  1.0000
  I   I102      1.0  0.22013  0.09043  0.77010  1.0000
  I   I103      1.0  0.62475  0.17550  0.98346  1.0000
  I   I104      1.0  0.57061  0.71270  0.16460  1.0000
  I   I105      1.0  0.23091  0.39060  0.64602  1.0000
  I   I106      1.0  0.92289  0.14905  0.44229  1.0000
  I   I107      1.0  0.60740  0.75178  0.28764  1.0000
  I   I108      1.0  0.97268  0.14800  0.51236  1.0000
  I   I109      1.0  0.87622  0.48149  0.64209  1.0000
  I   I110      1.0  0.78212  0.71745  0.39183  1.0000
  I   I111      1.0  0.15322  0.55702  0.07531  1.0000
  I   I112      1.0  0.29511  0.15230  0.15266  1.0000
  I   I113      1.0  0.09058  0.84929  0.14863  1.0000
  I   I114      1.0  0.04580  0.98548  0.58548  1.0000
  I   I115      1.0  0.19889  0.19528  0.42871  1.0000
  I   I116      1.0  0.21465  0.17849  0.32586  1.0000
  I   I117      1.0  0.42309  0.28796  0.20257  1.0000
  I   I118      1.0  0.82053  0.39516  0.67236  1.0000
  I   I119      1.0  0.15560  0.14836  0.27611  1.0000
  I   I120      1.0  0.17733  0.90493  0.72730  1.0000
  I   I121      1.0  0.47990  0.45423  0.13525  1.0000
  I   I122      1.0  0.73041  0.52952  0.33216  1.0000
  I   I123      1.0  0.46261  0.14336  0.97888  1.0000
  I   I124      1.0  0.38339  0.86161  0.03320  1.0000
  I   I125      1.0  0.38796  0.15331  0.77648  1.0000
  I   I126      1.0  0.27821  0.90133  0.40802  1.0000
  I   I127      1.0  0.54176  0.45622  0.52103  1.0000
  I   I128      1.0  0.07771  0.28528  0.09598  1.0000
  I   I129      1.0  0.81341  0.64079  0.80384  1.0000
  I   I130      1.0  0.40121  0.25117  0.59014  1.0000
  I   I131      1.0  0.76397  0.41207  0.37748  1.0000
  I   I132      1.0  0.76628  0.76236  0.10630  1.0000
  I   I133      1.0  0.91555  0.43463  0.93403  1.0000
  I   I134      1.0  0.17745  0.39223  0.15397  1.0000
  I   I135      1.0  0.33042  0.28261  0.29049  1.0000
  I   I136      1.0  0.98335  0.60267  0.20336  1.0000
  I   I137      1.0  0.59273  0.43974  0.79557  1.0000
  I   I138      1.0  0.31526  0.44226  0.17139  1.0000
  I   I139      1.0  0.18562  0.85142  0.27463  1.0000
  I   I140      1.0  0.83139  0.19880  0.48937  1.0000
  I   I141      1.0  0.64227  0.40581  0.49630  1.0000
  I   I142      1.0  0.03871  0.05691  0.74442  1.0000
  I   I143      1.0  0.10960  0.95877  0.26730  1.0000
  I   I144      1.0  0.80885  0.32482  0.72700  1.0000
  I   I145      1.0  0.81424  0.15983  0.89259  1.0000
  I   I146      1.0  0.46498  0.72744  0.56028  1.0000
  I   I147      1.0  0.13363  0.00119  0.34508  1.0000
  I   I148      1.0  0.63727  0.43151  0.71632  1.0000
  I   I149      1.0  0.22674  0.03393  0.74886  1.0000
  I   I150      1.0  0.45559  0.34289  0.36168  1.0000
  I   I151      1.0  0.57027  0.76384  0.13555  1.0000
  I   I152      1.0  0.32433  0.72941  0.23900  1.0000
  I   I153      1.0  0.21547  0.43156  0.55376  1.0000
  I   I154      1.0  0.04617  0.87498  0.68252  1.0000
  I   I155      1.0  0.29775  0.07782  0.58423  1.0000
  I   I156      1.0  0.99597  0.10310  0.47701  1.0000
  I   I157      1.0  0.83471  0.47017  0.63929  1.0000
  I   I158      1.0  0.08725  0.55072  0.03382  1.0000
  I   I159      1.0  0.75780  0.79875  0.83731  1.0000
  I   I160      1.0  0.25925  0.13318  0.22539  1.0000
  I   I161      1.0  0.06671  0.95454  0.47740  1.0000
  I   I162      1.0  0.27402  0.16559  0.28999  1.0000
  I   I163      1.0  0.92319  0.04912  0.84454  1.0000
  I   I164      1.0  0.43735  0.23596  0.23948  1.0000
  I   I165      1.0  0.29427  0.68366  0.07589  1.0000
  I   I166      1.0  0.86844  0.27996  0.72250  1.0000
  I   I167      1.0  0.14039  0.71200  0.72444  1.0000
  I   I168      1.0  0.75273  0.33924  0.23163  1.0000
  I   I169      1.0  0.71122  0.51135  0.39699  1.0000
  I   I170      1.0  0.75191  0.47135  0.44890  1.0000
  I   I171      1.0  0.45339  0.51557  0.98331  1.0000
  I   I172      1.0  0.42134  0.13217  0.69481  1.0000
  I   I173      1.0  0.29095  0.87830  0.29550  1.0000
  I   I174      1.0  0.33779  0.86229  0.96993  1.0000
  I   I175      1.0  0.43442  0.52890  0.33186  1.0000
  I   I176      1.0  0.53230  0.71958  0.09516  1.0000
  I   I177      1.0  0.34982  0.78331  0.77394  1.0000
  I   I178      1.0  0.72190  0.40257  0.34444  1.0000
  I   I179      1.0  0.05736  0.41488  0.77293  1.0000
  I   I180      1.0  0.39171  0.20404  0.51320  1.0000
  I   I181      1.0  0.94836  0.53665  0.66038  1.0000
  I   I182      1.0  0.64168  0.12138  0.94715  1.0000
  I   I183      1.0  0.45006  0.14590  0.12877  1.0000
  I   I184      1.0  0.59203  0.09630  0.52243  1.0000
  I   I185      1.0  0.28451  0.50343  0.13674  1.0000
  I   I186      1.0  0.91964  0.61676  0.24725  1.0000
  I   I187      1.0  0.84923  0.18579  0.59979  1.0000
  I   I188      1.0  0.91260  0.35627  0.32958  1.0000
  I   I189      1.0  0.40622  0.21095  0.20125  1.0000
  I   I190      1.0  0.69625  0.03189  0.99462  1.0000
  I   I191      1.0  0.03410  0.18046  0.45951  1.0000
  I   I192      1.0  0.15547  0.95940  0.30147  1.0000
  I   I193      1.0  0.33672  0.95186  0.32005  1.0000
  I   I194      1.0  0.09401  0.12137  0.45539  1.0000
  I   I195      1.0  0.07363  0.00718  0.31879  1.0000
  I   I196      1.0  0.13328  0.26954  0.01966  1.0000
  I   I197      1.0  0.36534  0.85021  0.59092  1.0000
  I   I198      1.0  0.40278  0.39188  0.28629  1.0000
  I   I199      1.0  0.57104  0.72874  0.06672  1.0000
  I   I200      1.0  0.60291  0.83560  0.11537  1.0000
  I   I201      1.0  0.17793  0.43605  0.68822  1.0000
  I   I202      1.0  0.48435  0.50511  0.70699  1.0000
  I   I203      1.0  0.89076  0.95296  0.96555  1.0000
  I   I204      1.0  0.91939  0.19847  0.49218  1.0000
  I   I205      1.0  0.77840  0.73160  0.48751  1.0000
  I   I206      1.0  0.11628  0.30464  0.20264  1.0000
  I   I207      1.0  0.79556  0.45273  0.58925  1.0000
  I   I208      1.0  0.21368  0.54806  0.38972  1.0000
  I   I209      1.0  0.08452  0.92702  0.59507  1.0000
  I   I210      1.0  0.31538  0.81116  0.70053  1.0000
  I   I211      1.0  0.19992  0.15251  0.23337  1.0000
  I   I212      1.0  0.19330  0.49817  0.93559  1.0000
  I   I213      1.0  0.87731  0.91084  0.01700  1.0000
  I   I214      1.0  0.79672  0.37059  0.62786  1.0000
  I   I215      1.0  0.10880  0.75936  0.77660  1.0000
  I   I216      1.0  0.68677  0.36173  0.46929  1.0000
  I   I217      1.0  0.68594  0.57224  0.37471  1.0000
  I   I218      1.0  0.40766  0.15433  0.92244  1.0000
  I   I219      1.0  0.44819  0.52225  0.13761  1.0000
  I   I220      1.0  0.79779  0.51372  0.65421  1.0000
  I   I221      1.0  0.33373  0.93237  0.43254  1.0000
  I   I222      1.0  0.40468  0.08931  0.68491  1.0000
  I   I223      1.0  0.50410  0.53250  0.30506  1.0000
  I   I224      1.0  0.50907  0.78488  0.07217  1.0000
  I   I225      1.0  0.50709  0.42370  0.52609  1.0000
  I   I226      1.0  0.76967  0.38735  0.27619  1.0000
  I   I227      1.0  0.80258  0.69942  0.09434  1.0000
  I   I228      1.0  0.35817  0.26670  0.50708  1.0000
  I   I229      1.0  0.09999  0.96933  0.55871  1.0000
  I   I230      1.0  0.25407  0.34463  0.12085  1.0000
  I   I231      1.0  0.89406  0.46627  0.83496  1.0000
  I   I232      1.0  0.12736  0.31736  0.09004  1.0000
  I   I233      1.0  0.87346  0.52006  0.41263  1.0000
  I   I234      1.0  0.12365  0.44588  0.07465  1.0000
  I   I235      1.0  0.96841  0.93413  0.59749  1.0000
  I   I236      1.0  0.71226  0.39607  0.51932  1.0000
  I   I237      1.0  0.16814  0.82052  0.21877  1.0000
  I   I238      1.0  0.94935  0.39523  0.63694  1.0000
  I   I239      1.0  0.79044  0.37887  0.74401  1.0000
  I   I240      1.0  0.02605  0.11644  0.83303  1.0000
  I   I241      1.0  0.76758  0.22556  0.89047  1.0000
  I   I242      1.0  0.43864  0.69459  0.55527  1.0000
  I   I243      1.0  0.68095  0.97344  0.03729  1.0000
  I   I244      1.0  0.56766  0.08810  0.43810  1.0000
  I   I245      1.0  0.19263  0.84685  0.64555  1.0000
  I   I246      1.0  0.44662  0.33840  0.25832  1.0000
  I   I247      1.0  0.69226  0.09716  0.91800  1.0000
  I   I248      1.0  0.27844  0.75372  0.12269  1.0000
  I   I249      1.0  0.17267  0.39897  0.59713  1.0000
  I   I250      1.0  0.50826  0.51365  0.81080  1.0000
  I   I251      1.0  0.35175  0.02262  0.59594  1.0000
  I   I252      1.0  0.94963  0.08936  0.52424  1.0000
  I   I253      1.0  0.74019  0.71568  0.50171  1.0000
  I   I254      1.0  0.07202  0.33887  0.14690  1.0000
  I   I255      1.0  0.79934  0.73817  0.89256  1.0000
  I   I256      1.0  0.10671  0.83685  0.02598  1.0000
  I   I257      1.0  0.92819  0.61223  0.67450  1.0000
  I   I258      1.0  0.31187  0.18029  0.24736  1.0000
  I   I259      1.0  0.14666  0.22472  0.35028  1.0000
  I   I260      1.0  0.45046  0.27153  0.31204  1.0000
  I   I261      1.0  0.23628  0.72749  0.09248  1.0000
  I   I262      1.0  0.84298  0.32164  0.65226  1.0000
  I   I263      1.0  0.88026  0.77335  0.06946  1.0000
  I   I264      1.0  0.37619  0.22704  0.61078  1.0000
  I   I265      1.0  0.71249  0.54992  0.47972  1.0000
  I   I266      1.0  0.82363  0.97136  0.91120  1.0000
  I   I267      1.0  0.49470  0.48642  0.04067  1.0000
  I   I268      1.0  0.41043  0.09988  0.80645  1.0000
  I   I269      1.0  0.29038  0.94189  0.32642  1.0000
  I   I270      1.0  0.46006  0.08044  0.73874  1.0000
  I   I271      1.0  0.47700  0.53140  0.39585  1.0000
  I   I272      1.0  0.86572  0.58956  0.86227  1.0000
  I   I273      1.0  0.54103  0.41776  0.44554  1.0000
  I   I274      1.0  0.76108  0.57533  0.01572  1.0000
  I   I275      1.0  0.77269  0.71423  0.19438  1.0000
  I   I276      1.0  0.43917  0.20537  0.53707  1.0000
  I   I277      1.0  0.80300  0.35765  0.35260  1.0000
  I   I278      1.0  0.20079  0.40999  0.08411  1.0000
  I   I279      1.0  0.37426  0.17674  0.20320  1.0000
  I   I280      1.0  0.60621  0.48647  0.76071  1.0000
  I   I281      1.0  0.90677  0.54962  0.35890  1.0000
  I   I282      1.0  0.97208  0.59456  0.30209  1.0000
  I   I283      1.0  0.98787  0.85014  0.67413  1.0000
  I   I284      1.0  0.76364  0.28453  0.18538  1.0000
  I   I285      1.0  0.44368  0.10208  0.06101  1.0000
  I   I286      1.0  0.93830  0.34816  0.67097  1.0000
  I   I287      1.0  0.09831  0.90591  0.78631  1.0000
  I   I288      1.0  0.07775  0.05774  0.80600  1.0000
  I   I289      1.0  0.99825  0.88090  0.62112  1.0000
  I   I290      1.0  0.07087  0.17126  0.38184  1.0000
  I   I291      1.0  0.41614  0.66186  0.59295  1.0000
  I   I292      1.0  0.64000  0.43702  0.84135  1.0000
  I   I293      1.0  0.15433  0.81408  0.63160  1.0000
  I   I294      1.0  0.46649  0.89880  0.26415  1.0000
  I   I295      1.0  0.71636  0.06726  0.01064  1.0000
  I   I296      1.0  0.57716  0.87489  0.02611  1.0000
  I   I297      1.0  0.22363  0.37849  0.55205  1.0000
  I   I298      1.0  0.36331  0.90620  0.63302  1.0000
  I   I299      1.0  0.21373  0.49325  0.34392  1.0000
  I   I300      1.0  0.67234  0.41160  0.41476  1.0000
  I   I301      1.0  0.74795  0.75228  0.83181  1.0000
  I   I302      1.0  0.72842  0.76106  0.40888  1.0000
  I   I303      1.0  0.60333  0.75291  0.38399  1.0000
  I   I304      1.0  0.28043  0.22096  0.14895  1.0000
  I   I305      1.0  0.16429  0.52846  0.40559  1.0000
  I   I306      1.0  0.66747  0.09509  0.05452  1.0000
  I   I307      1.0  0.88041  0.03293  0.79959  1.0000
  I   I308      1.0  0.14366  0.53546  0.98770  1.0000
  I   I309      1.0  0.29600  0.70780  0.16614  1.0000
  I   I310      1.0  0.01063  0.86766  0.75337  1.0000
  I   I311      1.0  0.82957  0.79558  0.14850  1.0000
  I   I312      1.0  0.12512  0.93447  0.78148  1.0000
  I   I313      1.0  0.50666  0.48303  0.13291  1.0000
  I   I314      1.0  0.77360  0.51231  0.44320  1.0000
  I   I315      1.0  0.41178  0.19711  0.00023  1.0000
  I   I316      1.0  0.35910  0.14333  0.69578  1.0000
  I   I317      1.0  0.43126  0.13986  0.81827  1.0000
  I   I318      1.0  0.32642  0.88807  0.35327  1.0000
  I   I319      1.0  0.33662  0.74565  0.77695  1.0000
  I   I320      1.0  0.13308  0.26163  0.11894  1.0000
  I   I321      1.0  0.56100  0.79360  0.03510  1.0000
  I   I322      1.0  0.80131  0.61056  0.00334  1.0000
  I   I323      1.0  0.05687  0.43883  0.67858  1.0000
  I   I324      1.0  0.40810  0.24440  0.47387  1.0000
  I   I325      1.0  0.88429  0.57684  0.57731  1.0000
  I   I326      1.0  0.66836  0.17413  0.91290  1.0000
  I   I327      1.0  0.40965  0.12125  0.13385  1.0000
  I   I328      1.0  0.66120  0.70546  0.28672  1.0000
  I   I329      1.0  0.27562  0.45533  0.11596  1.0000
  I   I330      1.0  0.05360  0.49203  0.07611  1.0000
  I   I331      1.0  0.41079  0.13957  0.01857  1.0000
  I   I332      1.0  0.31108  0.91808  0.60518  1.0000
  I   I333      1.0  0.91176  0.52811  0.45762  1.0000
  I   I334      1.0  0.97939  0.08028  0.73395  1.0000
  I   I335      1.0  0.67972  0.01007  0.11133  1.0000
  I   I336      1.0  0.84749  0.31034  0.81603  1.0000
  I   I337      1.0  0.02558  0.92330  0.58414  1.0000
  I   I338      1.0  0.10221  0.16592  0.48039  1.0000
  I   I339      1.0  0.46638  0.62244  0.55477  1.0000
  I   I340      1.0  0.34029  0.00353  0.98718  1.0000
  I   I341      1.0  0.24443  0.04702  0.85432  1.0000
  I   I342      1.0  0.48277  0.89840  0.36048  1.0000
  I   I343      1.0  0.54871  0.76088  0.99674  1.0000
  I   I344      1.0  0.62268  0.88041  0.11830  1.0000
  I   I345      1.0  0.18598  0.41925  0.48826  1.0000
  I   I346      1.0  0.20883  0.12321  0.33423  1.0000
  I   I347      1.0  0.47125  0.48506  0.80832  1.0000
  I   I348      1.0  0.00017  0.06581  0.54768  1.0000
  I   I349      1.0  0.74204  0.76835  0.94646  1.0000
  I   I350      1.0  0.78152  0.77454  0.49212  1.0000
  I   I351      1.0  0.08797  0.27490  0.98184  1.0000
  I   I352      1.0  0.32137  0.11336  0.25475  1.0000
  I   I353      1.0  0.08544  0.81158  0.08838  1.0000
  I   I354      1.0  0.62981  0.15914  0.87051  1.0000
  I   I355      1.0  0.85179  0.08505  0.87200  1.0000
  I   I356      1.0  0.48633  0.24437  0.22487  1.0000
  I   I357      1.0  0.90099  0.91931  0.86684  1.0000
  I   I358      1.0  0.70652  0.31716  0.22975  1.0000
  I   I359      1.0  0.89218  0.75864  0.18646  1.0000
  I   I360      1.0  0.18081  0.93420  0.79410  1.0000
  I   I361      1.0  0.41086  0.55552  0.05917  1.0000
  I   I362      1.0  0.73039  0.50488  0.52655  1.0000
  I   I363      1.0  0.86838  0.91122  0.91346  1.0000
  I   I364      1.0  0.40594  0.83128  0.95008  1.0000
  I   I365      1.0  0.83625  0.53260  0.62621  1.0000
  I   I366      1.0  0.36286  0.90063  0.35430  1.0000
  I   I367      1.0  0.36772  0.76618  0.69784  1.0000
  I   I368      1.0  0.30116  0.98382  0.97545  1.0000
  I   I369      1.0  0.80041  0.65176  0.90021  1.0000
  I   I370      1.0  0.75900  0.61747  0.93034  1.0000
  I   I371      1.0  0.01059  0.41728  0.70369  1.0000
  I   I372      1.0  0.73092  0.32697  0.13191  1.0000
  I   I373      1.0  0.88384  0.63862  0.61237  1.0000
  I   I374      1.0  0.21082  0.36660  0.04696  1.0000
  I   I375      1.0  0.39447  0.17764  0.11655  1.0000
  I   I376      1.0  0.57919  0.04413  0.52789  1.0000
  I   I377      1.0  0.33000  0.45460  0.06053  1.0000
  I   I378      1.0  0.95765  0.56103  0.21050  1.0000
  I   I379      1.0  0.20448  0.84073  0.17035  1.0000
  I   I380      1.0  0.86942  0.14154  0.52839  1.0000
  I   I381      1.0  0.92759  0.14271  0.56496  1.0000
  I   I382      1.0  0.00791  0.08222  0.83286  1.0000
  I   I383      1.0  0.89533  0.38510  0.57371  1.0000
  I   I384      1.0  0.11268  0.93169  0.87602  1.0000
