data_image0
_chemical_formula_structural       Ti96I384
_chemical_formula_sum              "Ti96 I384"
_cell_length_a       66.5575
_cell_length_b       66.4396
_cell_length_c       32.5165
_cell_angle_alpha    88.7757
_cell_angle_beta     88.7757
_cell_angle_gamma    62.1586

_space_group_name_H-M_alt    "P 1"
_space_group_IT_number       1

loop_
  _space_group_symop_operation_xyz
  'x, y, z'

loop_
  _atom_site_type_symbol
  _atom_site_label
  _atom_site_symmetry_multiplicity
  _atom_site_fract_x
  _atom_site_fract_y
  _atom_site_fract_z
  _atom_site_occupancy
  Ti  Ti1       1.0  0.31281  0.73684  0.36711  1.0000
  Ti  Ti2       1.0  0.58997  0.00094  0.03449  1.0000
  Ti  Ti3       1.0  0.72185  0.91871  0.38863  1.0000
  Ti  Ti4       1.0  0.02583  0.02554  0.94536  1.0000
  Ti  Ti5       1.0  0.77087  0.80314  0.56626  1.0000
  Ti  Ti6       1.0  0.21223  0.46935  0.62659  1.0000
  Ti  Ti7       1.0  0.88021  0.26781  0.40990  1.0000
  Ti  Ti8       1.0  0.38186  0.08451  0.78383  1.0000
  Ti  Ti9       1.0  0.29468  0.89252  0.90719  1.0000
  Ti  Ti10      1.0  0.75063  0.00010  0.18055  1.0000
  Ti  Ti11      1.0  0.02371  0.23085  0.06451  1.0000
  Ti  Ti12      1.0  0.17407  0.55691  0.43011  1.0000
  Ti  Ti13      1.0  0.15124  0.04714  0.84580  1.0000
  Ti  Ti14      1.0  0.04064  0.06983  0.48190  1.0000
  Ti  Ti15      1.0  0.62234  0.10723  0.69547  1.0000
  Ti  Ti16      1.0  0.72921  0.06679  0.17918  1.0000
  Ti  Ti17      1.0  0.32391  0.03983  0.19497  1.0000
  Ti  Ti18      1.0  0.07175  0.76744  0.31456  1.0000
  Ti  Ti19      1.0  0.53512  0.52505  0.21869  1.0000
  Ti  Ti20      1.0  0.34635  0.86187  0.62362  1.0000
  Ti  Ti21      1.0  0.36074  0.03939  0.73970  1.0000
  Ti  Ti22      1.0  0.67415  0.62568  0.95295  1.0000
  Ti  Ti23      1.0  0.49455  0.07869  0.65570  1.0000
  Ti  Ti24      1.0  0.26436  0.73629  0.61024  1.0000
  Ti  Ti25      1.0  0.63571  0.79277  0.77397  1.0000
  Ti  Ti26      1.0  0.42255  0.83282  0.26851  1.0000
  Ti  Ti27      1.0  0.78173  0.99781  0.52845  1.0000
  Ti  Ti28      1.0  0.67883  0.49207  0.62526  1.0000
  Ti  Ti29      1.0  0.87379  0.93357  0.86934  1.0000
  Ti  Ti30      1.0  0.16648  0.18739  0.44959  1.0000
  Ti  Ti31      1.0  0.01952  0.92660  0.30455  1.0000
  Ti  Ti32      1.0  0.75310  0.35587  0.10111  1.0000
  Ti  Ti33      1.0  0.09500  0.89646  0.18531  1.0000
  Ti  Ti34      1.0  0.47108  0.43271  0.96331  1.0000
  Ti  Ti35      1.0  0.67526  0.56018  0.19744  1.0000
  Ti  Ti36      1.0  0.74833  0.91451  0.91989  1.0000
  Ti  Ti37      1.0  0.07674  0.48024  0.37476  1.0000
  Ti  Ti38      1.0  0.59887  0.28990  0.08897  1.0000
  Ti  Ti39      1.0  0.97893  0.63199  0.13837  1.0000
  Ti  Ti40      1.0  0.27748  0.20568  0.93726  1.0000
  Ti  Ti41      1.0  0.52551  0.69439  0.71892  1.0000
  Ti  Ti42      1.0  0.83660  0.46910  0.21820  1.0000
  Ti  Ti43      1.0  0.61699  0.18081  0.34877  1.0000
  Ti  Ti44      1.0  0.89521  0.41454  0.72023  1.0000
  Ti  Ti45      1.0  0.34544  0.59909  0.53006  1.0000
  Ti  Ti46      1.0  0.42430  0.46480  0.48806  1.0000
  Ti  Ti47      1.0  0.23000  0.49582  0.16093  1.0000
  Ti  Ti48      1.0  0.55189  0.34338  0.68164  1.0000
  Ti  Ti49      1.0  0.73304  0.64116  0.52754  1.0000
  Ti  Ti50      1.0  0.00578  0.30417  0.85874  1.0000
  Ti  Ti51      1.0  0.51863  0.99988  0.04217  1.0000
  Ti  Ti52      1.0  0.01573  0.00601  0.03324  1.0000
  Ti  Ti53      1.0  0.44509  0.65344  0.85290  1.0000
  Ti  Ti54      1.0  0.25315  0.46801  0.66467  1.0000
  Ti  Ti55      1.0  0.88715  0.20883  0.40836  1.0000
  Ti  Ti56      1.0  0.38248  0.42681  0.69169  1.0000
  Ti  Ti57      1.0  0.24732  0.88170  0.90496  1.0000
  Ti  Ti58      1.0  0.66238  0.18409  0.30805  1.0000
  Ti  Ti59      1.0  0.15908  0.27648  0.78651  1.0000
  Ti  Ti60      1.0  0.10243  0.60394  0.46623  1.0000
  Ti  Ti61      1.0  0.65012  0.05481  0.67568  1.0000
  Ti  Ti62      1.0  0.16408  0.06304  0.77777  1.0000
  Ti  Ti63      1.0  0.98948  0.09778  0.51519  1.0000
  Ti  Ti64      1.0  0.09714  0.69793  0.27060  1.0000
  Ti  Ti65      1.0  0.02000  0.40931  0.65695  1.0000
  Ti  Ti66      1.0  0.50862  0.31084  0.17023  1.0000
  Ti  Ti67      1.0  0.58399  0.48870  0.11049  1.0000
  Ti  Ti68      1.0  0.03172  0.41195  0.07237  1.0000
  Ti  Ti69      1.0  0.40528  0.98573  0.88748  1.0000
  Ti  Ti70      1.0  0.65125  0.62122  0.84469  1.0000
  Ti  Ti71      1.0  0.51522  0.01019  0.67064  1.0000
  Ti  Ti72      1.0  0.09349  0.13093  0.13830  1.0000
  Ti  Ti73      1.0  0.80812  0.04187  0.59023  1.0000
  Ti  Ti74      1.0  0.60661  0.85700  0.83267  1.0000
  Ti  Ti75      1.0  0.35606  0.89194  0.31836  1.0000
  Ti  Ti76      1.0  0.17664  0.13465  0.40362  1.0000
  Ti  Ti77      1.0  0.69353  0.47427  0.73369  1.0000
  Ti  Ti78      1.0  0.92483  0.92335  0.83767  1.0000
  Ti  Ti79      1.0  0.59037  0.40236  0.28608  1.0000
  Ti  Ti80      1.0  0.77360  0.10748  0.79881  1.0000
  Ti  Ti81      1.0  0.73730  0.37012  0.20703  1.0000
  Ti  Ti82      1.0  0.48446  0.49594  0.92053  1.0000
  Ti  Ti83      1.0  0.66878  0.50189  0.18316  1.0000
  Ti  Ti84      1.0  0.76580  0.84137  0.86770  1.0000
  Ti  Ti85      1.0  0.01337  0.51453  0.38463  1.0000
  Ti  Ti86      1.0  0.56759  0.30499  0.20223  1.0000
  Ti  Ti87      1.0  0.94645  0.60223  0.13878  1.0000
  Ti  Ti88      1.0  0.59840  0.72375  0.34601  1.0000
  Ti  Ti89      1.0  0.46477  0.72493  0.64675  1.0000
  Ti  Ti90      1.0  0.81827  0.47097  0.10227  1.0000
  Ti  Ti91      1.0  0.29747  0.64029  0.48155  1.0000
  Ti  Ti92      1.0  0.03462  0.78603  0.91429  1.0000
  Ti  Ti93      1.0  0.91211  0.40216  0.60356  1.0000
  Ti  Ti94      1.0  0.58193  0.31008  0.58066  1.0000
  Ti  Ti95      1.0  0.42515  0.48177  0.34052  1.0000
  Ti  Ti96      1.0  0.17035  0.52190  0.10446  1.0000
  I   I1        1.0  0.13950  0.54243  0.16015  1.0000
  I   I2        1.0  0.55631  0.00419  0.08134  1.0000
  I   I3        1.0  0.70921  0.65233  0.46150  1.0000
  I   I4        1.0  0.41311  0.68460  0.90017  1.0000
  I   I5        1.0  0.19855  0.49375  0.70317  1.0000
  I   I6        1.0  0.27401  0.43065  0.71564  1.0000
  I   I7        1.0  0.41135  0.06020  0.84649  1.0000
  I   I8        1.0  0.35981  0.43969  0.76609  1.0000
  I   I9        1.0  0.29236  0.85036  0.90786  1.0000
  I   I10       1.0  0.75967  0.07983  0.16253  1.0000
  I   I11       1.0  0.99941  0.20988  0.04971  1.0000
  I   I12       1.0  0.74437  0.82831  0.51219  1.0000
  I   I13       1.0  0.12706  0.04850  0.77659  1.0000
  I   I14       1.0  0.00875  0.06234  0.55865  1.0000
  I   I15       1.0  0.57808  0.13598  0.68143  1.0000
  I   I16       1.0  0.70648  0.08404  0.24025  1.0000
  I   I17       1.0  0.48262  0.35011  0.12437  1.0000
  I   I18       1.0  0.11914  0.65945  0.31071  1.0000
  I   I19       1.0  0.31318  0.89356  0.58999  1.0000
  I   I20       1.0  0.02706  0.25015  0.13411  1.0000
  I   I21       1.0  0.32051  0.07583  0.70379  1.0000
  I   I22       1.0  0.46592  0.10433  0.60306  1.0000
  I   I23       1.0  0.54054  0.00959  0.72852  1.0000
  I   I24       1.0  0.61786  0.65087  0.88808  1.0000
  I   I25       1.0  0.56634  0.87281  0.86405  1.0000
  I   I26       1.0  0.35441  0.93077  0.29073  1.0000
  I   I27       1.0  0.81248  0.04853  0.50859  1.0000
  I   I28       1.0  0.65418  0.47420  0.74232  1.0000
  I   I29       1.0  0.91655  0.96807  0.82993  1.0000
  I   I30       1.0  0.20027  0.15384  0.49112  1.0000
  I   I31       1.0  0.75204  0.12347  0.87005  1.0000
  I   I32       1.0  0.73177  0.40623  0.24863  1.0000
  I   I33       1.0  0.60857  0.42378  0.25379  1.0000
  I   I34       1.0  0.67807  0.47163  0.12770  1.0000
  I   I35       1.0  0.73588  0.95345  0.87818  1.0000
  I   I36       1.0  0.50365  0.39329  0.94856  1.0000
  I   I37       1.0  0.00951  0.55130  0.35168  1.0000
  I   I38       1.0  0.96086  0.61184  0.20783  1.0000
  I   I39       1.0  0.05025  0.50919  0.43244  1.0000
  I   I40       1.0  0.47348  0.69881  0.58411  1.0000
  I   I41       1.0  0.83493  0.43665  0.04946  1.0000
  I   I42       1.0  0.31219  0.21381  0.95756  1.0000
  I   I43       1.0  0.69905  0.15283  0.26849  1.0000
  I   I44       1.0  0.87422  0.43313  0.63960  1.0000
  I   I45       1.0  0.28394  0.61417  0.53359  1.0000
  I   I46       1.0  0.42467  0.45354  0.29288  1.0000
  I   I47       1.0  0.24489  0.49368  0.24168  1.0000
  I   I48       1.0  0.50988  0.36286  0.69795  1.0000
  I   I49       1.0  0.75971  0.66006  0.52160  1.0000
  I   I50       1.0  0.61726  0.96688  0.99491  1.0000
  I   I51       1.0  0.53389  0.00382  0.96652  1.0000
  I   I52       1.0  0.05437  0.98099  0.96793  1.0000
  I   I53       1.0  0.47046  0.66567  0.81111  1.0000
  I   I54       1.0  0.26591  0.49562  0.70124  1.0000
  I   I55       1.0  0.84543  0.30280  0.38322  1.0000
  I   I56       1.0  0.40278  0.10145  0.73592  1.0000
  I   I57       1.0  0.32615  0.89006  0.95524  1.0000
  I   I58       1.0  0.74842  0.97985  0.10376  1.0000
  I   I59       1.0  0.15822  0.24301  0.74944  1.0000
  I   I60       1.0  0.12461  0.55748  0.43995  1.0000
  I   I61       1.0  0.18304  0.03903  0.71250  1.0000
  I   I62       1.0  0.14260  0.01576  0.87542  1.0000
  I   I63       1.0  0.08084  0.04682  0.51317  1.0000
  I   I64       1.0  0.72074  0.03723  0.13140  1.0000
  I   I65       1.0  0.02171  0.37290  0.68978  1.0000
  I   I66       1.0  0.47168  0.31861  0.21292  1.0000
  I   I67       1.0  0.55666  0.48161  0.16743  1.0000
  I   I68       1.0  0.34255  0.84427  0.69878  1.0000
  I   I69       1.0  0.42218  0.94602  0.92053  1.0000
  I   I70       1.0  0.62207  0.60481  0.83192  1.0000
  I   I71       1.0  0.49704  0.09367  0.73003  1.0000
  I   I72       1.0  0.12020  0.10278  0.19660  1.0000
  I   I73       1.0  0.78248  0.07051  0.64980  1.0000
  I   I74       1.0  0.42697  0.79523  0.22825  1.0000
  I   I75       1.0  0.36926  0.86638  0.24782  1.0000
  I   I76       1.0  0.63990  0.52148  0.58972  1.0000
  I   I77       1.0  0.72157  0.43118  0.72928  1.0000
  I   I78       1.0  0.96958  0.90324  0.84435  1.0000
  I   I79       1.0  0.12600  0.85605  0.16394  1.0000
  I   I80       1.0  0.98968  0.94459  0.36137  1.0000
  I   I81       1.0  0.78200  0.35633  0.21524  1.0000
  I   I82       1.0  0.44740  0.53177  0.90392  1.0000
  I   I83       1.0  0.63963  0.54039  0.23281  1.0000
  I   I84       1.0  0.78040  0.86692  0.92523  1.0000
  I   I85       1.0  0.97795  0.52929  0.43511  1.0000
  I   I86       1.0  0.55337  0.30123  0.11498  1.0000
  I   I87       1.0  0.00843  0.63372  0.08708  1.0000
  I   I88       1.0  0.24242  0.22200  0.88723  1.0000
  I   I89       1.0  0.43005  0.72066  0.68170  1.0000
  I   I90       1.0  0.78102  0.49136  0.06094  1.0000
  I   I91       1.0  0.30521  0.65156  0.40632  1.0000
  I   I92       1.0  0.01439  0.76714  0.87176  1.0000
  I   I93       1.0  0.86163  0.40674  0.74594  1.0000
  I   I94       1.0  0.56606  0.32612  0.76111  1.0000
  I   I95       1.0  0.38178  0.48988  0.49202  1.0000
  I   I96       1.0  0.15949  0.55449  0.04550  1.0000
  I   I97       1.0  0.68171  0.91880  0.40531  1.0000
  I   I98       1.0  0.31265  0.75507  0.29761  1.0000
  I   I99       1.0  0.61537  0.01285  0.07989  1.0000
  I   I100      1.0  0.98899  0.06196  0.96455  1.0000
  I   I101      1.0  0.99267  0.98770  0.01174  1.0000
  I   I102      1.0  0.79764  0.81765  0.59824  1.0000
  I   I103      1.0  0.92440  0.17769  0.37468  1.0000
  I   I104      1.0  0.85747  0.25851  0.46841  1.0000
  I   I105      1.0  0.22865  0.86229  0.95195  1.0000
  I   I106      1.0  0.19779  0.58156  0.43841  1.0000
  I   I107      1.0  0.72438  0.99754  0.24373  1.0000
  I   I108      1.0  0.19106  0.53034  0.36904  1.0000
  I   I109      1.0  0.63052  0.11377  0.62099  1.0000
  I   I110      1.0  0.14359  0.09552  0.72792  1.0000
  I   I111      1.0  0.03653  0.03547  0.45630  1.0000
  I   I112      1.0  0.08185  0.72218  0.34914  1.0000
  I   I113      1.0  0.05592  0.41685  0.64714  1.0000
  I   I114      1.0  0.32351  0.07959  0.20042  1.0000
  I   I115      1.0  0.58208  0.50450  0.20159  1.0000
  I   I116      1.0  0.49420  0.52438  0.22763  1.0000
  I   I117      1.0  0.01627  0.45618  0.06606  1.0000
  I   I118      1.0  0.68932  0.63098  0.86944  1.0000
  I   I119      1.0  0.64751  0.63678  0.77333  1.0000
  I   I120      1.0  0.12044  0.13798  0.08698  1.0000
  I   I121      1.0  0.83004  0.99366  0.55336  1.0000
  I   I122      1.0  0.60724  0.77757  0.76288  1.0000
  I   I123      1.0  0.40778  0.87118  0.31344  1.0000
  I   I124      1.0  0.17663  0.09651  0.42432  1.0000
  I   I125      1.0  0.70129  0.50315  0.57144  1.0000
  I   I126      1.0  0.85427  0.97614  0.88925  1.0000
  I   I127      1.0  0.12073  0.90804  0.22356  1.0000
  I   I128      1.0  0.76640  0.11807  0.72357  1.0000
  I   I129      1.0  0.71455  0.36041  0.26717  1.0000
  I   I130      1.0  0.74639  0.88769  0.84919  1.0000
  I   I131      1.0  0.49688  0.45706  0.98512  1.0000
  I   I132      1.0  0.65860  0.54222  0.13434  1.0000
  I   I133      1.0  0.00085  0.63860  0.20419  1.0000
  I   I134      1.0  0.64143  0.28251  0.08979  1.0000
  I   I135      1.0  0.60811  0.27396  0.17780  1.0000
  I   I136      1.0  0.83270  0.50891  0.23027  1.0000
  I   I137      1.0  0.58762  0.69435  0.37882  1.0000
  I   I138      1.0  0.52406  0.67062  0.79470  1.0000
  I   I139      1.0  0.37481  0.60875  0.49593  1.0000
  I   I140      1.0  0.05259  0.76481  0.98114  1.0000
  I   I141      1.0  0.92335  0.37635  0.67997  1.0000
  I   I142      1.0  0.55516  0.37962  0.68473  1.0000
  I   I143      1.0  0.40554  0.52285  0.31169  1.0000
  I   I144      1.0  0.19257  0.48720  0.16012  1.0000
  I   I145      1.0  0.31679  0.76179  0.42222  1.0000
  I   I146      1.0  0.57876  0.03556  0.98207  1.0000
  I   I147      1.0  0.72564  0.94233  0.44135  1.0000
  I   I148      1.0  0.04026  0.02988  0.04285  1.0000
  I   I149      1.0  0.79281  0.76196  0.53103  1.0000
  I   I150      1.0  0.17140  0.47874  0.60506  1.0000
  I   I151      1.0  0.90139  0.18580  0.47730  1.0000
  I   I152      1.0  0.38873  0.05787  0.71588  1.0000
  I   I153      1.0  0.24316  0.87328  0.82872  1.0000
  I   I154      1.0  0.66401  0.21932  0.28645  1.0000
  I   I155      1.0  0.06467  0.19956  0.03540  1.0000
  I   I156      1.0  0.07301  0.64989  0.45929  1.0000
  I   I157      1.0  0.62038  0.13996  0.74317  1.0000
  I   I158      1.0  0.95876  0.13792  0.54468  1.0000
  I   I159      1.0  0.67624  0.06655  0.62467  1.0000
  I   I160      1.0  0.08900  0.74249  0.24198  1.0000
  I   I161      1.0  0.35295  0.00508  0.23390  1.0000
  I   I162      1.0  0.07086  0.69057  0.22659  1.0000
  I   I163      1.0  0.54607  0.53771  0.28563  1.0000
  I   I164      1.0  0.00577  0.40541  0.02182  1.0000
  I   I165      1.0  0.38136  0.00815  0.68720  1.0000
  I   I166      1.0  0.69517  0.59376  0.02246  1.0000
  I   I167      1.0  0.53848  0.06126  0.64394  1.0000
  I   I168      1.0  0.23916  0.76775  0.66312  1.0000
  I   I169      1.0  0.60587  0.89359  0.79735  1.0000
  I   I170      1.0  0.65067  0.81569  0.72421  1.0000
  I   I171      1.0  0.76767  0.03838  0.58120  1.0000
  I   I172      1.0  0.15387  0.13751  0.33776  1.0000
  I   I173      1.0  0.90456  0.89636  0.83266  1.0000
  I   I174      1.0  0.13833  0.21471  0.50083  1.0000
  I   I175      1.0  0.98291  0.94425  0.24675  1.0000
  I   I176      1.0  0.76677  0.38533  0.07881  1.0000
  I   I177      1.0  0.55683  0.43771  0.33452  1.0000
  I   I178      1.0  0.50273  0.51757  0.94753  1.0000
  I   I179      1.0  0.66229  0.47492  0.23533  1.0000
  I   I180      1.0  0.77217  0.81528  0.93161  1.0000
  I   I181      1.0  0.01364  0.50273  0.30928  1.0000
  I   I182      1.0  0.54147  0.27422  0.20931  1.0000
  I   I183      1.0  0.90695  0.63564  0.15497  1.0000
  I   I184      1.0  0.63553  0.69660  0.30521  1.0000
  I   I185      1.0  0.52514  0.65945  0.69018  1.0000
  I   I186      1.0  0.85359  0.47545  0.11469  1.0000
  I   I187      1.0  0.06895  0.78843  0.88307  1.0000
  I   I188      1.0  0.88691  0.45083  0.76915  1.0000
  I   I189      1.0  0.31830  0.65437  0.52465  1.0000
  I   I190      1.0  0.46467  0.47697  0.33108  1.0000
  I   I191      1.0  0.01594  0.33876  0.85552  1.0000
  I   I192      1.0  0.57532  0.29624  0.50978  1.0000
  I   I193      1.0  0.33662  0.69312  0.34993  1.0000
  I   I194      1.0  0.98390  0.29972  0.92601  1.0000
  I   I195      1.0  0.72348  0.93626  0.31405  1.0000
  I   I196      1.0  0.01821  0.01277  0.87109  1.0000
  I   I197      1.0  0.63218  0.17965  0.26556  1.0000
  I   I198      1.0  0.23453  0.45907  0.55492  1.0000
  I   I199      1.0  0.91975  0.22525  0.44766  1.0000
  I   I200      1.0  0.38932  0.46000  0.66218  1.0000
  I   I201      1.0  0.27380  0.93620  0.92014  1.0000
  I   I202      1.0  0.13958  0.28658  0.85958  1.0000
  I   I203      1.0  0.35951  0.00266  0.88691  1.0000
  I   I204      1.0  0.18794  0.52401  0.49852  1.0000
  I   I205      1.0  0.12523  0.09485  0.84053  1.0000
  I   I206      1.0  0.95750  0.08954  0.47997  1.0000
  I   I207      1.0  0.67464  0.01490  0.71473  1.0000
  I   I208      1.0  0.70349  0.09549  0.11120  1.0000
  I   I209      1.0  0.34352  0.02219  0.11889  1.0000
  I   I210      1.0  0.02625  0.78755  0.32256  1.0000
  I   I211      1.0  0.62597  0.45516  0.12342  1.0000
  I   I212      1.0  0.37956  0.87078  0.60072  1.0000
  I   I213      1.0  0.40084  0.01027  0.95181  1.0000
  I   I214      1.0  0.70351  0.64195  0.96904  1.0000
  I   I215      1.0  0.51135  0.03566  0.59946  1.0000
  I   I216      1.0  0.30604  0.72412  0.62316  1.0000
  I   I217      1.0  0.59308  0.83240  0.77822  1.0000
  I   I218      1.0  0.31634  0.89892  0.30685  1.0000
  I   I219      1.0  0.79246  0.98589  0.45497  1.0000
  I   I220      1.0  0.67447  0.46075  0.58193  1.0000
  I   I221      1.0  0.87800  0.89940  0.93131  1.0000
  I   I222      1.0  0.14415  0.15405  0.45794  1.0000
  I   I223      1.0  0.04729  0.94382  0.31320  1.0000
  I   I224      1.0  0.78192  0.31478  0.06114  1.0000
  I   I225      1.0  0.09395  0.92430  0.12033  1.0000
  I   I226      1.0  0.51281  0.47164  0.86156  1.0000
  I   I227      1.0  0.71296  0.55245  0.15523  1.0000
  I   I228      1.0  0.76544  0.92518  0.98044  1.0000
  I   I229      1.0  0.08208  0.46207  0.29741  1.0000
  I   I230      1.0  0.61417  0.24492  0.08458  1.0000
  I   I231      1.0  0.93975  0.56679  0.16506  1.0000
  I   I232      1.0  0.02735  0.10932  0.52134  1.0000
  I   I233      1.0  0.56891  0.68459  0.70210  1.0000
  I   I234      1.0  0.82627  0.43902  0.17334  1.0000
  I   I235      1.0  0.65435  0.13969  0.34877  1.0000
  I   I236      1.0  0.93448  0.35522  0.56952  1.0000
  I   I237      1.0  0.33379  0.59355  0.43755  1.0000
  I   I238      1.0  0.42998  0.49447  0.53853  1.0000
  I   I239      1.0  0.16627  0.49228  0.04985  1.0000
  I   I240      1.0  0.60166  0.31044  0.65641  1.0000
  I   I241      1.0  0.70291  0.68207  0.55687  1.0000
  I   I242      1.0  0.55197  0.95448  0.01015  1.0000
  I   I243      1.0  0.75794  0.87964  0.38756  1.0000
  I   I244      1.0  0.02710  0.98176  0.10317  1.0000
  I   I245      1.0  0.47152  0.63063  0.91325  1.0000
  I   I246      1.0  0.28855  0.45808  0.60915  1.0000
  I   I247      1.0  0.87172  0.24114  0.34963  1.0000
  I   I248      1.0  0.36882  0.12583  0.83086  1.0000
  I   I249      1.0  0.24628  0.90864  0.97276  1.0000
  I   I250      1.0  0.19406  0.28381  0.75894  1.0000
  I   I251      1.0  0.01443  0.27149  0.03174  1.0000
  I   I252      1.0  0.07503  0.58950  0.50738  1.0000
  I   I253      1.0  0.19526  0.01839  0.82126  1.0000
  I   I254      1.0  0.99839  0.09634  0.43394  1.0000
  I   I255      1.0  0.62887  0.04792  0.61578  1.0000
  I   I256      1.0  0.01475  0.42956  0.73019  1.0000
  I   I257      1.0  0.28354  0.04905  0.18814  1.0000
  I   I258      1.0  0.08717  0.77357  0.37885  1.0000
  I   I259      1.0  0.58218  0.46252  0.05653  1.0000
  I   I260      1.0  0.01483  0.41190  0.14641  1.0000
  I   I261      1.0  0.34157  0.01147  0.75700  1.0000
  I   I262      1.0  0.64289  0.66273  0.99097  1.0000
  I   I263      1.0  0.48245  0.99932  0.66268  1.0000
  I   I264      1.0  0.25634  0.75533  0.53361  1.0000
  I   I265      1.0  0.67334  0.75000  0.79438  1.0000
  I   I266      1.0  0.44901  0.84131  0.22098  1.0000
  I   I267      1.0  0.84392  0.02611  0.63350  1.0000
  I   I268      1.0  0.67149  0.52258  0.70265  1.0000
  I   I269      1.0  0.88796  0.94741  0.78013  1.0000
  I   I270      1.0  0.21834  0.12475  0.38839  1.0000
  I   I271      1.0  0.03827  0.88563  0.33439  1.0000
  I   I272      1.0  0.74263  0.33045  0.16197  1.0000
  I   I273      1.0  0.05568  0.89643  0.20664  1.0000
  I   I274      1.0  0.45606  0.47059  0.90663  1.0000
  I   I275      1.0  0.69693  0.56616  0.26860  1.0000
  I   I276      1.0  0.80416  0.82308  0.81773  1.0000
  I   I277      1.0  0.08113  0.51067  0.33159  1.0000
  I   I278      1.0  0.57913  0.33483  0.16781  1.0000
  I   I279      1.0  0.99762  0.58022  0.14372  1.0000
  I   I280      1.0  0.56041  0.75020  0.30392  1.0000
  I   I281      1.0  0.45170  0.76779  0.62873  1.0000
  I   I282      1.0  0.81411  0.47432  0.28732  1.0000
  I   I283      1.0  0.59578  0.22764  0.35580  1.0000
  I   I284      1.0  0.91378  0.40967  0.52420  1.0000
  I   I285      1.0  0.33676  0.61314  0.60353  1.0000
  I   I286      1.0  0.41771  0.49858  0.42016  1.0000
  I   I287      1.0  0.20265  0.54187  0.15483  1.0000
  I   I288      1.0  0.54315  0.35036  0.59603  1.0000
  I   I289      1.0  0.72496  0.61636  0.58159  1.0000
  I   I290      1.0  0.00164  0.30633  0.78414  1.0000
  I   I291      1.0  0.47858  0.01314  0.00892  1.0000
  I   I292      1.0  0.98176  0.03792  0.06866  1.0000
  I   I293      1.0  0.42665  0.64061  0.79177  1.0000
  I   I294      1.0  0.22388  0.50743  0.62015  1.0000
  I   I295      1.0  0.90373  0.28789  0.43576  1.0000
  I   I296      1.0  0.42429  0.40177  0.72059  1.0000
  I   I297      1.0  0.25258  0.91848  0.85581  1.0000
  I   I298      1.0  0.67851  0.16947  0.38488  1.0000
  I   I299      1.0  0.76544  0.02460  0.22467  1.0000
  I   I300      1.0  0.12985  0.61044  0.51807  1.0000
  I   I301      1.0  0.66525  0.07864  0.73366  1.0000
  I   I302      1.0  0.16599  0.06076  0.90693  1.0000
  I   I303      1.0  0.30981  0.18466  0.87492  1.0000
  I   I304      1.0  0.06682  0.80546  0.27258  1.0000
  I   I305      1.0  0.79245  0.96829  0.18298  1.0000
  I   I306      1.0  0.52241  0.33621  0.21753  1.0000
  I   I307      1.0  0.53324  0.55895  0.17401  1.0000
  I   I308      1.0  0.35748  0.82555  0.57866  1.0000
  I   I309      1.0  0.35376  0.06520  0.80664  1.0000
  I   I310      1.0  0.67188  0.58728  0.91706  1.0000
  I   I311      1.0  0.47929  0.05178  0.70384  1.0000
  I   I312      1.0  0.08140  0.10453  0.09731  1.0000
  I   I313      1.0  0.74667  0.99320  0.55829  1.0000
  I   I314      1.0  0.63281  0.80745  0.85516  1.0000
  I   I315      1.0  0.35658  0.87665  0.38888  1.0000
  I   I316      1.0  0.14458  0.19463  0.38042  1.0000
  I   I317      1.0  0.72210  0.47515  0.66901  1.0000
  I   I318      1.0  0.91689  0.92738  0.91773  1.0000
  I   I319      1.0  0.56316  0.39762  0.23428  1.0000
  I   I320      1.0  0.76256  0.07325  0.80125  1.0000
  I   I321      1.0  0.72368  0.35120  0.05556  1.0000
  I   I322      1.0  0.43911  0.42568  0.94007  1.0000
  I   I323      1.0  0.69771  0.50999  0.21262  1.0000
  I   I324      1.0  0.70815  0.91978  0.95283  1.0000
  I   I325      1.0  0.04561  0.46689  0.41272  1.0000
  I   I326      1.0  0.57520  0.30317  0.28644  1.0000
  I   I327      1.0  0.94526  0.67339  0.14618  1.0000
  I   I328      1.0  0.27744  0.17614  0.98940  1.0000
  I   I329      1.0  0.51166  0.71831  0.64696  1.0000
  I   I330      1.0  0.87531  0.44289  0.24728  1.0000
  I   I331      1.0  0.35657  0.55658  0.53804  1.0000
  I   I332      1.0  0.59555  0.15688  0.32111  1.0000
  I   I333      1.0  0.91464  0.38389  0.79007  1.0000
  I   I334      1.0  0.62180  0.27088  0.57571  1.0000
  I   I335      1.0  0.43248  0.43311  0.54200  1.0000
  I   I336      1.0  0.27230  0.46595  0.14832  1.0000
  I   I337      1.0  0.27804  0.73302  0.38342  1.0000
  I   I338      1.0  0.04741  0.26712  0.87428  1.0000
  I   I339      1.0  0.50042  0.00097  0.11653  1.0000
  I   I340      1.0  0.05012  0.03953  0.90411  1.0000
  I   I341      1.0  0.74970  0.80024  0.62899  1.0000
  I   I342      1.0  0.22824  0.42630  0.63728  1.0000
  I   I343      1.0  0.86681  0.18718  0.37527  1.0000
  I   I344      1.0  0.36079  0.39803  0.68510  1.0000
  I   I345      1.0  0.32493  0.87963  0.84179  1.0000
  I   I346      1.0  0.62224  0.17304  0.43313  1.0000
  I   I347      1.0  0.12553  0.30948  0.74678  1.0000
  I   I348      1.0  0.13841  0.59474  0.39721  1.0000
  I   I349      1.0  0.61529  0.07565  0.74307  1.0000
  I   I350      1.0  0.18886  0.07950  0.80362  1.0000
  I   I351      1.0  0.05852  0.07740  0.41935  1.0000
  I   I352      1.0  0.13113  0.68268  0.21211  1.0000
  I   I353      1.0  0.00782  0.40160  0.58527  1.0000
  I   I354      1.0  0.49977  0.29367  0.10237  1.0000
  I   I355      1.0  0.58492  0.52273  0.07001  1.0000
  I   I356      1.0  0.07426  0.38166  0.05872  1.0000
  I   I357      1.0  0.41376  0.00171  0.81652  1.0000
  I   I358      1.0  0.26198  0.69979  0.62294  1.0000
  I   I359      1.0  0.54472  0.96955  0.64557  1.0000
  I   I360      1.0  0.06161  0.16445  0.17645  1.0000
  I   I361      1.0  0.80055  0.95838  0.57072  1.0000
  I   I362      1.0  0.62947  0.86256  0.89038  1.0000
  I   I363      1.0  0.44213  0.80452  0.33250  1.0000
  I   I364      1.0  0.19068  0.20979  0.42580  1.0000
  I   I365      1.0  0.70839  0.49071  0.79414  1.0000
  I   I366      1.0  0.83543  0.94247  0.83154  1.0000
  I   I367      1.0  0.62024  0.36040  0.28494  1.0000
  I   I368      1.0  0.80377  0.12107  0.81307  1.0000
  I   I369      1.0  0.71672  0.39148  0.13683  1.0000
  I   I370      1.0  0.46564  0.43519  0.03857  1.0000
  I   I371      1.0  0.64330  0.60333  0.20264  1.0000
  I   I372      1.0  0.73601  0.84093  0.82137  1.0000
  I   I373      1.0  0.12090  0.44427  0.38022  1.0000
  I   I374      1.0  0.58338  0.30683  0.01733  1.0000
  I   I375      1.0  0.95561  0.62188  0.07559  1.0000
  I   I376      1.0  0.60240  0.75123  0.39494  1.0000
  I   I377      1.0  0.47989  0.72270  0.73829  1.0000
  I   I378      1.0  0.79135  0.49332  0.17305  1.0000
  I   I379      1.0  0.25799  0.67570  0.48816  1.0000
  I   I380      1.0  0.00471  0.83009  0.93240  1.0000
  I   I381      1.0  0.93744  0.41950  0.62465  1.0000
  I   I382      1.0  0.55522  0.29638  0.63868  1.0000
  I   I383      1.0  0.44564  0.43685  0.43187  1.0000
  I   I384      1.0  0.21796  0.50112  0.08227  1.0000
