data_image0
_chemical_formula_structural       Ti96I384
_chemical_formula_sum              "Ti96 I384"
_cell_length_a       78.5891
_cell_length_b       78.4031
_cell_length_c       38.4276
_cell_angle_alpha    88.7757
_cell_angle_beta     88.7757
_cell_angle_gamma    62.1586

_space_group_name_H-M_alt    "P 1"
_space_group_IT_number       1

loop_
  _space_group_symop_operation_xyz
  'x, y, z'

loop_
  _atom_site_type_symbol
  _atom_site_label
  _atom_site_symmetry_multiplicity
  _atom_site_fract_x
  _atom_site_fract_y
  _atom_site_fract_z
  _atom_site_occupancy
  Ti  Ti1       1.0  0.59859  0.74966  0.05624  1.0000
  Ti  Ti2       1.0  0.63819  0.86551  0.43350  1.0000
  Ti  Ti3       1.0  0.13914  0.06079  0.47727  1.0000
  Ti  Ti4       1.0  0.37316  0.87956  0.93451  1.0000
  Ti  Ti5       1.0  0.82178  0.99569  0.72213  1.0000
  Ti  Ti6       1.0  0.32116  0.88334  0.21334  1.0000
  Ti  Ti7       1.0  0.58480  0.01695  0.52211  1.0000
  Ti  Ti8       1.0  0.81510  0.28939  0.48288  1.0000
  Ti  Ti9       1.0  0.05456  0.12942  0.66162  1.0000
  Ti  Ti10      1.0  0.89247  0.42683  0.40713  1.0000
  Ti  Ti11      1.0  0.95312  0.93944  0.80744  1.0000
  Ti  Ti12      1.0  0.26747  0.82047  0.10952  1.0000
  Ti  Ti13      1.0  0.55652  0.71432  0.53403  1.0000
  Ti  Ti14      1.0  0.39273  0.83773  0.99967  1.0000
  Ti  Ti15      1.0  0.98055  0.10962  0.81470  1.0000
  Ti  Ti16      1.0  0.91743  0.24453  0.33917  1.0000
  Ti  Ti17      1.0  0.21690  0.18253  0.26213  1.0000
  Ti  Ti18      1.0  0.68774  0.25807  0.34291  1.0000
  Ti  Ti19      1.0  0.24230  0.04317  0.41527  1.0000
  Ti  Ti20      1.0  0.11307  0.39003  0.64987  1.0000
  Ti  Ti21      1.0  0.80306  0.28527  0.37288  1.0000
  Ti  Ti22      1.0  0.56684  0.39126  0.35694  1.0000
  Ti  Ti23      1.0  0.37316  0.31466  0.09276  1.0000
  Ti  Ti24      1.0  0.53347  0.40827  0.55141  1.0000
  Ti  Ti25      1.0  0.75532  0.22045  0.59260  1.0000
  Ti  Ti26      1.0  0.14637  0.83243  0.90003  1.0000
  Ti  Ti27      1.0  0.82026  0.81057  0.18907  1.0000
  Ti  Ti28      1.0  0.45317  0.91234  0.42784  1.0000
  Ti  Ti29      1.0  0.06354  0.86615  0.78298  1.0000
  Ti  Ti30      1.0  0.24931  0.64126  0.36260  1.0000
  Ti  Ti31      1.0  0.88601  0.98401  0.53609  1.0000
  Ti  Ti32      1.0  0.29355  0.01392  0.68055  1.0000
  Ti  Ti33      1.0  0.63272  0.24517  0.05911  1.0000
  Ti  Ti34      1.0  0.99244  0.45312  0.49899  1.0000
  Ti  Ti35      1.0  0.61456  0.16007  0.86091  1.0000
  Ti  Ti36      1.0  0.81708  0.03070  0.03184  1.0000
  Ti  Ti37      1.0  0.52227  0.95185  0.71652  1.0000
  Ti  Ti38      1.0  0.53931  0.54856  0.59599  1.0000
  Ti  Ti39      1.0  0.90659  0.45987  0.35604  1.0000
  Ti  Ti40      1.0  0.71657  0.64183  0.02511  1.0000
  Ti  Ti41      1.0  0.45719  0.53455  0.23267  1.0000
  Ti  Ti42      1.0  0.11397  0.50909  0.27000  1.0000
  Ti  Ti43      1.0  0.39406  0.66365  0.79163  1.0000
  Ti  Ti44      1.0  0.98803  0.29408  0.62198  1.0000
  Ti  Ti45      1.0  0.95374  0.25345  0.70503  1.0000
  Ti  Ti46      1.0  0.73982  0.61570  0.83177  1.0000
  Ti  Ti47      1.0  0.60643  0.31250  0.69617  1.0000
  Ti  Ti48      1.0  0.73747  0.79024  0.69524  1.0000
  Ti  Ti49      1.0  0.01906  0.85390  0.26495  1.0000
  Ti  Ti50      1.0  0.07162  0.39960  0.71171  1.0000
  Ti  Ti51      1.0  0.59820  0.86298  0.49849  1.0000
  Ti  Ti52      1.0  0.32056  0.77212  0.23446  1.0000
  Ti  Ti53      1.0  0.84318  0.84323  0.34633  1.0000
  Ti  Ti54      1.0  0.53123  0.88118  0.83944  1.0000
  Ti  Ti55      1.0  0.70148  0.58407  0.29615  1.0000
  Ti  Ti56      1.0  0.67944  0.10773  0.58406  1.0000
  Ti  Ti57      1.0  0.08149  0.12893  0.69981  1.0000
  Ti  Ti58      1.0  0.58761  0.17646  0.40150  1.0000
  Ti  Ti59      1.0  0.96490  0.22998  0.35757  1.0000
  Ti  Ti60      1.0  0.11314  0.29370  0.49835  1.0000
  Ti  Ti61      1.0  0.48761  0.23823  0.57096  1.0000
  Ti  Ti62      1.0  0.53605  0.71374  0.62511  1.0000
  Ti  Ti63      1.0  0.05799  0.79591  0.06067  1.0000
  Ti  Ti64      1.0  0.65483  0.25727  0.40072  1.0000
  Ti  Ti65      1.0  0.78771  0.59618  0.04660  1.0000
  Ti  Ti66      1.0  0.43013  0.89516  0.44572  1.0000
  Ti  Ti67      1.0  0.09909  0.65965  0.70424  1.0000
  Ti  Ti68      1.0  0.79873  0.58935  0.76557  1.0000
  Ti  Ti69      1.0  0.18417  0.82607  0.95723  1.0000
  Ti  Ti70      1.0  0.37550  0.32205  0.64050  1.0000
  Ti  Ti71      1.0  0.46708  0.70680  0.04190  1.0000
  Ti  Ti72      1.0  0.61679  0.29687  0.59553  1.0000
  Ti  Ti73      1.0  0.48625  0.32018  0.53428  1.0000
  Ti  Ti74      1.0  0.81080  0.17707  0.56101  1.0000
  Ti  Ti75      1.0  0.70049  0.79360  0.32251  1.0000
  Ti  Ti76      1.0  0.04415  0.01820  0.95458  1.0000
  Ti  Ti77      1.0  0.94333  0.13648  0.73113  1.0000
  Ti  Ti78      1.0  0.11544  0.80461  0.71083  1.0000
  Ti  Ti79      1.0  0.58607  0.00202  0.07657  1.0000
  Ti  Ti80      1.0  0.01892  0.62956  0.60449  1.0000
  Ti  Ti81      1.0  0.30802  0.35340  0.07762  1.0000
  Ti  Ti82      1.0  0.68910  0.50321  0.56969  1.0000
  Ti  Ti83      1.0  0.91374  0.29744  0.74203  1.0000
  Ti  Ti84      1.0  0.75521  0.06893  0.01715  1.0000
  Ti  Ti85      1.0  0.48234  0.95698  0.69370  1.0000
  Ti  Ti86      1.0  0.57832  0.03911  0.61210  1.0000
  Ti  Ti87      1.0  0.45298  0.88446  0.65438  1.0000
  Ti  Ti88      1.0  0.86517  0.14115  0.05843  1.0000
  Ti  Ti89      1.0  0.05182  0.25888  0.05173  1.0000
  Ti  Ti90      1.0  0.16148  0.21678  0.29577  1.0000
  Ti  Ti91      1.0  0.57967  0.43006  0.83782  1.0000
  Ti  Ti92      1.0  0.64993  0.58011  0.76717  1.0000
  Ti  Ti93      1.0  0.44807  0.76667  0.78193  1.0000
  Ti  Ti94      1.0  0.70774  0.80159  0.65044  1.0000
  Ti  Ti95      1.0  0.92808  0.96352  0.99463  1.0000
  Ti  Ti96      1.0  0.38042  0.29090  0.88239  1.0000
  I   I1        1.0  0.59851  0.35019  0.68443  1.0000
  I   I2        1.0  0.56142  0.87470  0.47382  1.0000
  I   I3        1.0  0.00819  0.84503  0.32827  1.0000
  I   I4        1.0  0.83393  0.88021  0.33379  1.0000
  I   I5        1.0  0.29328  0.89297  0.16741  1.0000
  I   I6        1.0  0.49753  0.88522  0.81552  1.0000
  I   I7        1.0  0.79681  0.25970  0.34486  1.0000
  I   I8        1.0  0.71042  0.10573  0.55675  1.0000
  I   I9        1.0  0.01837  0.15523  0.69106  1.0000
  I   I10       1.0  0.71184  0.67203  0.05626  1.0000
  I   I11       1.0  0.92075  0.96304  0.83268  1.0000
  I   I12       1.0  0.79077  0.03119  0.72072  1.0000
  I   I13       1.0  0.55073  0.71032  0.68457  1.0000
  I   I14       1.0  0.03457  0.82843  0.04251  1.0000
  I   I15       1.0  0.98351  0.07858  0.83468  1.0000
  I   I16       1.0  0.72384  0.64413  0.95846  1.0000
  I   I17       1.0  0.39763  0.89576  0.41950  1.0000
  I   I18       1.0  0.71053  0.22697  0.30187  1.0000
  I   I19       1.0  0.08325  0.79990  0.02083  1.0000
  I   I20       1.0  0.94888  0.94551  0.74169  1.0000
  I   I21       1.0  0.83434  0.30263  0.44821  1.0000
  I   I22       1.0  0.37711  0.34398  0.11117  1.0000
  I   I23       1.0  0.83588  0.14127  0.10127  1.0000
  I   I24       1.0  0.36967  0.29392  0.66150  1.0000
  I   I25       1.0  0.73588  0.25301  0.56348  1.0000
  I   I26       1.0  0.66391  0.80459  0.30861  1.0000
  I   I27       1.0  0.58031  0.18575  0.84373  1.0000
  I   I28       1.0  0.45077  0.94367  0.37938  1.0000
  I   I29       1.0  0.09954  0.78321  0.70354  1.0000
  I   I30       1.0  0.21834  0.66755  0.33245  1.0000
  I   I31       1.0  0.05482  0.61012  0.59793  1.0000
  I   I32       1.0  0.29070  0.38218  0.12618  1.0000
  I   I33       1.0  0.56827  0.04087  0.05387  1.0000
  I   I34       1.0  0.64016  0.17078  0.85521  1.0000
  I   I35       1.0  0.73120  0.10118  0.05555  1.0000
  I   I36       1.0  0.01237  0.44625  0.43621  1.0000
  I   I37       1.0  0.49264  0.94883  0.76876  1.0000
  I   I38       1.0  0.88387  0.42898  0.47610  1.0000
  I   I39       1.0  0.54217  0.95946  0.66940  1.0000
  I   I40       1.0  0.00140  0.30395  0.56217  1.0000
  I   I41       1.0  0.04790  0.40178  0.65785  1.0000
  I   I42       1.0  0.67801  0.65172  0.01868  1.0000
  I   I43       1.0  0.60483  0.15629  0.34609  1.0000
  I   I44       1.0  0.97507  0.21982  0.67109  1.0000
  I   I45       1.0  0.88752  0.30186  0.78515  1.0000
  I   I46       1.0  0.93950  0.96012  0.92729  1.0000
  I   I47       1.0  0.57111  0.32246  0.72129  1.0000
  I   I48       1.0  0.73508  0.76089  0.65363  1.0000
  I   I49       1.0  0.00899  0.83608  0.22085  1.0000
  I   I50       1.0  0.64544  0.89496  0.44577  1.0000
  I   I51       1.0  0.67327  0.83351  0.43931  1.0000
  I   I52       1.0  0.98436  0.63905  0.63993  1.0000
  I   I53       1.0  0.85972  0.82705  0.28533  1.0000
  I   I54       1.0  0.55809  0.85888  0.79712  1.0000
  I   I55       1.0  0.55492  0.05000  0.54742  1.0000
  I   I56       1.0  0.82291  0.26179  0.43124  1.0000
  I   I57       1.0  0.95650  0.96981  0.00687  1.0000
  I   I58       1.0  0.89351  0.49069  0.39555  1.0000
  I   I59       1.0  0.93902  0.26524  0.33691  1.0000
  I   I60       1.0  0.09672  0.32193  0.53969  1.0000
  I   I61       1.0  0.55822  0.73693  0.61418  1.0000
  I   I62       1.0  0.52445  0.74427  0.51440  1.0000
  I   I63       1.0  0.10850  0.38625  0.58279  1.0000
  I   I64       1.0  0.97823  0.19064  0.35126  1.0000
  I   I65       1.0  0.74087  0.60624  0.01551  1.0000
  I   I66       1.0  0.47790  0.88248  0.41063  1.0000
  I   I67       1.0  0.24860  0.03060  0.47896  1.0000
  I   I68       1.0  0.11403  0.38947  0.72795  1.0000
  I   I69       1.0  0.18652  0.82244  0.88442  1.0000
  I   I70       1.0  0.40100  0.31611  0.58723  1.0000
  I   I71       1.0  0.40254  0.27972  0.10422  1.0000
  I   I72       1.0  0.57936  0.32730  0.61572  1.0000
  I   I73       1.0  0.79207  0.81218  0.23563  1.0000
  I   I74       1.0  0.14595  0.81396  0.84399  1.0000
  I   I75       1.0  0.11311  0.83622  0.91629  1.0000
  I   I76       1.0  0.97741  0.11265  0.70661  1.0000
  I   I77       1.0  0.98153  0.12509  0.87365  1.0000
  I   I78       1.0  0.85519  0.01969  0.54240  1.0000
  I   I79       1.0  0.61869  0.22252  0.07145  1.0000
  I   I80       1.0  0.58868  0.76189  0.99527  1.0000
  I   I81       1.0  0.30413  0.03548  0.64342  1.0000
  I   I82       1.0  0.65662  0.50212  0.55961  1.0000
  I   I83       1.0  0.93090  0.25330  0.75793  1.0000
  I   I84       1.0  0.82260  0.99860  0.07017  1.0000
  I   I85       1.0  0.44789  0.96920  0.69120  1.0000
  I   I86       1.0  0.40747  0.92739  0.47756  1.0000
  I   I87       1.0  0.94337  0.45255  0.35835  1.0000
  I   I88       1.0  0.92216  0.43650  0.42096  1.0000
  I   I89       1.0  0.01832  0.42154  0.53072  1.0000
  I   I90       1.0  0.03835  0.40793  0.74437  1.0000
  I   I91       1.0  0.56026  0.44357  0.89661  1.0000
  I   I92       1.0  0.61929  0.61024  0.74543  1.0000
  I   I93       1.0  0.95971  0.29079  0.59731  1.0000
  I   I94       1.0  0.73822  0.80803  0.62600  1.0000
  I   I95       1.0  0.76430  0.62983  0.77438  1.0000
  I   I96       1.0  0.60292  0.37178  0.34995  1.0000
  I   I97       1.0  0.14469  0.06552  0.54556  1.0000
  I   I98       1.0  0.59111  0.72048  0.07003  1.0000
  I   I99       1.0  0.60054  0.88387  0.42618  1.0000
  I   I100      1.0  0.36185  0.84763  0.05061  1.0000
  I   I101      1.0  0.86228  0.13908  0.99042  1.0000
  I   I102      1.0  0.84568  0.00451  0.75120  1.0000
  I   I103      1.0  0.60971  0.02488  0.64762  1.0000
  I   I104      1.0  0.66639  0.59977  0.32280  1.0000
  I   I105      1.0  0.06700  0.10122  0.71612  1.0000
  I   I106      1.0  0.30457  0.79833  0.10719  1.0000
  I   I107      1.0  0.88898  0.39900  0.38306  1.0000
  I   I108      1.0  0.24919  0.81092  0.06855  1.0000
  I   I109      1.0  0.01503  0.10271  0.80262  1.0000
  I   I110      1.0  0.55020  0.69477  0.48887  1.0000
  I   I111      1.0  0.14926  0.36957  0.64722  1.0000
  I   I112      1.0  0.62391  0.25319  0.40751  1.0000
  I   I113      1.0  0.78974  0.56656  0.01456  1.0000
  I   I114      1.0  0.24436  0.17188  0.21558  1.0000
  I   I115      1.0  0.11836  0.62518  0.67810  1.0000
  I   I116      1.0  0.06917  0.68648  0.67372  1.0000
  I   I117      1.0  0.80889  0.59281  0.70568  1.0000
  I   I118      1.0  0.35209  0.32106  0.90675  1.0000
  I   I119      1.0  0.08176  0.65871  0.75890  1.0000
  I   I120      1.0  0.63382  0.30774  0.63956  1.0000
  I   I121      1.0  0.49136  0.29971  0.47967  1.0000
  I   I122      1.0  0.73781  0.20307  0.55950  1.0000
  I   I123      1.0  0.71898  0.75722  0.30478  1.0000
  I   I124      1.0  0.24736  0.61307  0.39831  1.0000
  I   I125      1.0  0.00462  0.03341  0.95278  1.0000
  I   I126      1.0  0.11862  0.81988  0.65303  1.0000
  I   I127      1.0  0.62774  0.26320  0.12595  1.0000
  I   I128      1.0  0.42093  0.80697  0.02810  1.0000
  I   I129      1.0  0.29927  0.37224  0.01880  1.0000
  I   I130      1.0  0.73002  0.05939  0.99215  1.0000
  I   I131      1.0  0.73178  0.49331  0.58562  1.0000
  I   I132      1.0  0.60128  0.14456  0.91107  1.0000
  I   I133      1.0  0.89957  0.47013  0.29318  1.0000
  I   I134      1.0  0.54031  0.57823  0.56315  1.0000
  I   I135      1.0  0.42848  0.87033  0.49203  1.0000
  I   I136      1.0  0.13525  0.50561  0.31939  1.0000
  I   I137      1.0  0.34742  0.78026  0.24716  1.0000
  I   I138      1.0  0.03456  0.29498  0.01763  1.0000
  I   I139      1.0  0.60947  0.42907  0.86519  1.0000
  I   I140      1.0  0.67529  0.57034  0.72049  1.0000
  I   I141      1.0  0.47864  0.76596  0.81013  1.0000
  I   I142      1.0  0.69809  0.79303  0.58904  1.0000
  I   I143      1.0  0.17423  0.04027  0.44642  1.0000
  I   I144      1.0  0.54830  0.37495  0.32619  1.0000
  I   I145      1.0  0.63575  0.73135  0.04575  1.0000
  I   I146      1.0  0.60361  0.88980  0.51871  1.0000
  I   I147      1.0  0.10441  0.08181  0.50252  1.0000
  I   I148      1.0  0.29906  0.77022  0.18753  1.0000
  I   I149      1.0  0.83772  0.99317  0.66015  1.0000
  I   I150      1.0  0.31631  0.85385  0.23997  1.0000
  I   I151      1.0  0.71641  0.54366  0.28364  1.0000
  I   I152      1.0  0.77461  0.29919  0.48713  1.0000
  I   I153      1.0  0.05878  0.14228  0.75686  1.0000
  I   I154      1.0  0.37656  0.66003  0.84803  1.0000
  I   I155      1.0  0.97260  0.95579  0.84642  1.0000
  I   I156      1.0  0.13804  0.30459  0.46650  1.0000
  I   I157      1.0  0.93546  0.16500  0.67444  1.0000
  I   I158      1.0  0.04366  0.77802  0.01452  1.0000
  I   I159      1.0  0.49743  0.22060  0.63401  1.0000
  I   I160      1.0  0.66550  0.23802  0.33642  1.0000
  I   I161      1.0  0.19510  0.21621  0.30372  1.0000
  I   I162      1.0  0.68428  0.28320  0.29795  1.0000
  I   I163      1.0  0.20919  0.04786  0.39411  1.0000
  I   I164      1.0  0.72108  0.60819  0.78210  1.0000
  I   I165      1.0  0.78979  0.30919  0.31894  1.0000
  I   I166      1.0  0.40356  0.30849  0.89929  1.0000
  I   I167      1.0  0.35550  0.31357  0.03637  1.0000
  I   I168      1.0  0.54824  0.42714  0.51465  1.0000
  I   I169      1.0  0.83282  0.19575  0.55542  1.0000
  I   I170      1.0  0.77962  0.20811  0.52222  1.0000
  I   I171      1.0  0.85511  0.78677  0.18931  1.0000
  I   I172      1.0  0.04589  0.98653  0.97807  1.0000
  I   I173      1.0  0.10031  0.80787  0.78050  1.0000
  I   I174      1.0  0.26965  0.63144  0.30787  1.0000
  I   I175      1.0  0.89543  0.98492  0.46891  1.0000
  I   I176      1.0  0.33041  0.98663  0.66840  1.0000
  I   I177      1.0  0.58612  0.02024  0.13207  1.0000
  I   I178      1.0  0.68686  0.52971  0.52028  1.0000
  I   I179      1.0  0.92298  0.27572  0.66969  1.0000
  I   I180      1.0  0.79060  0.06555  0.05886  1.0000
  I   I181      1.0  0.55015  0.93722  0.76082  1.0000
  I   I182      1.0  0.54786  0.03700  0.65120  1.0000
  I   I183      1.0  0.42545  0.90577  0.61042  1.0000
  I   I184      1.0  0.88862  0.15209  0.08788  1.0000
  I   I185      1.0  0.07287  0.26745  0.09036  1.0000
  I   I186      1.0  0.12227  0.52409  0.21882  1.0000
  I   I187      1.0  0.66117  0.58446  0.82539  1.0000
  I   I188      1.0  0.01453  0.26042  0.63433  1.0000
  I   I189      1.0  0.48779  0.87323  0.62525  1.0000
  I   I190      1.0  0.72009  0.65605  0.82879  1.0000
  I   I191      1.0  0.14679  0.25210  0.32263  1.0000
  I   I192      1.0  0.13880  0.08827  0.43939  1.0000
  I   I193      1.0  0.08591  0.84347  0.73101  1.0000
  I   I194      1.0  0.10353  0.42792  0.65800  1.0000
  I   I195      1.0  0.12847  0.03821  0.44213  1.0000
  I   I196      1.0  0.37735  0.86674  0.86757  1.0000
  I   I197      1.0  0.60336  0.18902  0.45076  1.0000
  I   I198      1.0  0.35941  0.86922  0.21442  1.0000
  I   I199      1.0  0.27611  0.03474  0.73212  1.0000
  I   I200      1.0  0.67914  0.07382  0.56826  1.0000
  I   I201      1.0  0.04344  0.12784  0.59911  1.0000
  I   I202      1.0  0.90238  0.24523  0.27279  1.0000
  I   I203      1.0  0.13086  0.86776  0.92943  1.0000
  I   I204      1.0  0.26602  0.80616  0.17304  1.0000
  I   I205      1.0  0.51610  0.69520  0.63711  1.0000
  I   I206      1.0  0.38122  0.90626  0.92959  1.0000
  I   I207      1.0  0.92077  0.13041  0.69274  1.0000
  I   I208      1.0  0.92219  0.23146  0.40077  1.0000
  I   I209      1.0  0.20907  0.15188  0.27028  1.0000
  I   I210      1.0  0.57395  0.00085  0.01288  1.0000
  I   I211      1.0  0.38228  0.33743  0.69741  1.0000
  I   I212      1.0  0.05240  0.81345  0.11992  1.0000
  I   I213      1.0  0.18769  0.85842  0.95212  1.0000
  I   I214      1.0  0.55132  0.41783  0.31313  1.0000
  I   I215      1.0  0.33688  0.32604  0.12316  1.0000
  I   I216      1.0  0.42078  0.80164  0.80197  1.0000
  I   I217      1.0  0.74102  0.22111  0.65670  1.0000
  I   I218      1.0  0.72003  0.79806  0.37446  1.0000
  I   I219      1.0  0.51455  0.31575  0.56890  1.0000
  I   I220      1.0  0.93790  0.12281  0.79782  1.0000
  I   I221      1.0  0.07721  0.87519  0.83263  1.0000
  I   I222      1.0  0.07167  0.00248  0.90832  1.0000
  I   I223      1.0  0.91773  0.97684  0.57297  1.0000
  I   I224      1.0  0.26598  0.00219  0.66688  1.0000
  I   I225      1.0  0.66234  0.21902  0.02340  1.0000
  I   I226      1.0  0.71252  0.46411  0.55795  1.0000
  I   I227      1.0  0.62307  0.12546  0.83378  1.0000
  I   I228      1.0  0.84952  0.03640  0.04795  1.0000
  I   I229      1.0  0.57148  0.20358  0.35788  1.0000
  I   I230      1.0  0.52895  0.53237  0.55157  1.0000
  I   I231      1.0  0.92088  0.41525  0.33551  1.0000
  I   I232      1.0  0.37813  0.87827  0.00811  1.0000
  I   I233      1.0  0.42408  0.54666  0.26252  1.0000
  I   I234      1.0  0.24635  0.16069  0.30293  1.0000
  I   I235      1.0  0.41789  0.67666  0.79130  1.0000
  I   I236      1.0  0.43300  0.74557  0.76311  1.0000
  I   I237      1.0  0.56552  0.46351  0.80429  1.0000
  I   I238      1.0  0.90775  0.99993  0.98422  1.0000
  I   I239      1.0  0.39083  0.28866  0.81495  1.0000
  I   I240      1.0  0.73165  0.77271  0.75267  1.0000
  I   I241      1.0  0.57963  0.77215  0.10960  1.0000
  I   I242      1.0  0.64231  0.86322  0.36705  1.0000
  I   I243      1.0  0.77020  0.58542  0.81334  1.0000
  I   I244      1.0  0.88655  0.10721  0.08038  1.0000
  I   I245      1.0  0.85930  0.83238  0.41631  1.0000
  I   I246      1.0  0.30615  0.90754  0.27041  1.0000
  I   I247      1.0  0.58480  0.03267  0.46151  1.0000
  I   I248      1.0  0.77131  0.31279  0.39760  1.0000
  I   I249      1.0  0.11530  0.10865  0.72496  1.0000
  I   I250      1.0  0.99062  0.23516  0.32079  1.0000
  I   I251      1.0  0.97524  0.90220  0.81022  1.0000
  I   I252      1.0  0.08332  0.30730  0.45778  1.0000
  I   I253      1.0  0.50322  0.74718  0.62399  1.0000
  I   I254      1.0  0.41429  0.84275  0.95148  1.0000
  I   I255      1.0  0.51241  0.20361  0.55375  1.0000
  I   I256      1.0  0.78213  0.59434  0.11873  1.0000
  I   I257      1.0  0.52040  0.91860  0.69733  1.0000
  I   I258      1.0  0.63973  0.29062  0.36367  1.0000
  I   I259      1.0  0.12678  0.67116  0.69739  1.0000
  I   I260      1.0  0.83102  0.56287  0.79397  1.0000
  I   I261      1.0  0.83846  0.26914  0.34639  1.0000
  I   I262      1.0  0.54371  0.39866  0.41264  1.0000
  I   I263      1.0  0.48688  0.69492  0.09753  1.0000
  I   I264      1.0  0.83585  0.00933  0.97854  1.0000
  I   I265      1.0  0.78601  0.18275  0.61470  1.0000
  I   I266      1.0  0.15596  0.80908  0.95727  1.0000
  I   I267      1.0  0.46489  0.31913  0.58666  1.0000
  I   I268      1.0  0.47259  0.92959  0.46577  1.0000
  I   I269      1.0  0.14549  0.78649  0.75394  1.0000
  I   I270      1.0  0.45281  0.89670  0.50377  1.0000
  I   I271      1.0  0.90317  0.94414  0.53659  1.0000
  I   I272      1.0  0.29068  0.33068  0.07304  1.0000
  I   I273      1.0  0.61290  0.26961  0.01268  1.0000
  I   I274      1.0  0.45406  0.53696  0.16432  1.0000
  I   I275      1.0  0.81147  0.79594  0.13796  1.0000
  I   I276      1.0  0.75108  0.08699  0.95818  1.0000
  I   I277      1.0  0.68565  0.49616  0.63868  1.0000
  I   I278      1.0  0.51166  0.55978  0.64410  1.0000
  I   I279      1.0  0.98513  0.32684  0.64436  1.0000
  I   I280      1.0  0.33136  0.73620  0.25009  1.0000
  I   I281      1.0  0.48666  0.53998  0.23215  1.0000
  I   I282      1.0  0.07984  0.51831  0.30425  1.0000
  I   I283      1.0  0.41500  0.62601  0.78742  1.0000
  I   I284      1.0  0.49680  0.42714  0.54365  1.0000
  I   I285      1.0  0.44734  0.91030  0.70248  1.0000
  I   I286      1.0  0.95472  0.92249  0.01385  1.0000
  I   I287      1.0  0.62458  0.26549  0.56084  1.0000
  I   I288      1.0  0.70523  0.82569  0.70273  1.0000
  I   I289      1.0  0.37620  0.69195  0.73619  1.0000
  I   I290      1.0  0.17832  0.21212  0.23002  1.0000
  I   I291      1.0  0.62215  0.83596  0.46055  1.0000
  I   I292      1.0  0.29433  0.79804  0.27273  1.0000
  I   I293      1.0  0.81435  0.83855  0.36951  1.0000
  I   I294      1.0  0.54199  0.85379  0.89008  1.0000
  I   I295      1.0  0.61131  0.98782  0.48897  1.0000
  I   I296      1.0  0.67308  0.12410  0.64359  1.0000
  I   I297      1.0  0.09531  0.11216  0.62695  1.0000
  I   I298      1.0  0.57059  0.15924  0.43442  1.0000
  I   I299      1.0  0.88559  0.27645  0.34411  1.0000
  I   I300      1.0  0.46388  0.77754  0.72574  1.0000
  I   I301      1.0  0.50635  0.25718  0.56685  1.0000
  I   I302      1.0  0.58512  0.71431  0.49936  1.0000
  I   I303      1.0  0.76189  0.63359  0.04369  1.0000
  I   I304      1.0  0.69516  0.25018  0.40935  1.0000
  I   I305      1.0  0.97295  0.23926  0.41652  1.0000
  I   I306      1.0  0.58842  0.99987  0.59338  1.0000
  I   I307      1.0  0.25652  0.06459  0.40777  1.0000
  I   I308      1.0  0.09397  0.36914  0.67510  1.0000
  I   I309      1.0  0.83230  0.28998  0.54198  1.0000
  I   I310      1.0  0.04819  0.86124  0.25195  1.0000
  I   I311      1.0  0.44878  0.74549  0.04647  1.0000
  I   I312      1.0  0.62586  0.27510  0.66528  1.0000
  I   I313      1.0  0.47084  0.35492  0.51283  1.0000
  I   I314      1.0  0.82632  0.14086  0.58485  1.0000
  I   I315      1.0  0.70323  0.81218  0.26608  1.0000
  I   I316      1.0  0.05500  0.04068  0.99367  1.0000
  I   I317      1.0  0.42738  0.91398  0.38050  1.0000
  I   I318      1.0  0.03763  0.90075  0.75741  1.0000
  I   I319      1.0  0.62114  0.99551  0.06625  1.0000
  I   I320      1.0  0.33418  0.89910  0.93483  1.0000
  I   I321      1.0  0.71250  0.57854  0.35768  1.0000
  I   I322      1.0  0.00179  0.48196  0.52112  1.0000
  I   I323      1.0  0.98670  0.23947  0.74777  1.0000
  I   I324      1.0  0.78297  0.03037  0.00671  1.0000
  I   I325      1.0  0.49441  0.98432  0.67925  1.0000
  I   I326      1.0  0.60736  0.03065  0.55207  1.0000
  I   I327      1.0  0.97334  0.27611  0.68589  1.0000
  I   I328      1.0  0.86065  0.45163  0.38159  1.0000
  I   I329      1.0  0.07598  0.24712  0.99337  1.0000
  I   I330      1.0  0.13216  0.22074  0.26081  1.0000
  I   I331      1.0  0.43815  0.86983  0.70229  1.0000
  I   I332      1.0  0.16768  0.18740  0.33652  1.0000
  I   I333      1.0  0.95771  0.46233  0.47438  1.0000
  I   I334      1.0  0.68008  0.79725  0.69379  1.0000
  I   I335      1.0  0.77835  0.57395  0.73573  1.0000
  I   I336      1.0  0.36904  0.26590  0.89764  1.0000
  I   I337      1.0  0.98481  0.88607  0.26163  1.0000
  I   I338      1.0  0.07716  0.39632  0.78416  1.0000
  I   I339      1.0  0.59016  0.84351  0.54582  1.0000
  I   I340      1.0  0.02746  0.65645  0.61913  1.0000
  I   I341      1.0  0.81322  0.97445  0.76497  1.0000
  I   I342      1.0  0.54404  0.90652  0.83887  1.0000
  I   I343      1.0  0.70212  0.61452  0.26886  1.0000
  I   I344      1.0  0.64131  0.12962  0.57104  1.0000
  I   I345      1.0  0.06254  0.15923  0.65720  1.0000
  I   I346      1.0  0.34460  0.34604  0.60969  1.0000
  I   I347      1.0  0.95253  0.22612  0.28639  1.0000
  I   I348      1.0  0.12270  0.26394  0.53966  1.0000
  I   I349      1.0  0.45466  0.26368  0.55249  1.0000
  I   I350      1.0  0.57254  0.68776  0.58592  1.0000
  I   I351      1.0  0.37658  0.83072  0.95529  1.0000
  I   I352      1.0  0.64501  0.26926  0.46793  1.0000
  I   I353      1.0  0.82221  0.59415  0.05663  1.0000
  I   I354      1.0  0.58858  0.06819  0.62201  1.0000
  I   I355      1.0  0.27142  0.01426  0.38850  1.0000
  I   I356      1.0  0.72858  0.60541  0.88840  1.0000
  I   I357      1.0  0.16865  0.83770  0.01834  1.0000
  I   I358      1.0  0.54674  0.37015  0.54132  1.0000
  I   I359      1.0  0.45093  0.68631  0.02514  1.0000
  I   I360      1.0  0.62440  0.31387  0.54474  1.0000
  I   I361      1.0  0.81470  0.84572  0.17564  1.0000
  I   I362      1.0  0.81766  0.16128  0.50127  1.0000
  I   I363      1.0  0.21177  0.79454  0.98289  1.0000
  I   I364      1.0  0.24661  0.65678  0.42097  1.0000
  I   I365      1.0  0.95801  0.15257  0.78060  1.0000
  I   I366      1.0  0.05011  0.84383  0.81466  1.0000
  I   I367      1.0  0.58548  0.97137  0.11285  1.0000
  I   I368      1.0  0.01121  0.63303  0.53464  1.0000
  I   I369      1.0  0.38127  0.30370  0.16368  1.0000
  I   I370      1.0  0.47282  0.50153  0.27140  1.0000
  I   I371      1.0  0.93606  0.30422  0.78792  1.0000
  I   I372      1.0  0.53917  0.39726  0.61775  1.0000
  I   I373      1.0  0.48694  0.93810  0.63793  1.0000
  I   I374      1.0  0.56546  0.54671  0.63669  1.0000
  I   I375      1.0  0.89840  0.33091  0.71560  1.0000
  I   I376      1.0  0.49097  0.69946  0.98842  1.0000
  I   I377      1.0  0.05563  0.22497  0.06910  1.0000
  I   I378      1.0  0.13905  0.47081  0.25477  1.0000
  I   I379      1.0  0.57750  0.40429  0.80027  1.0000
  I   I380      1.0  0.63882  0.55332  0.77351  1.0000
  I   I381      1.0  0.26291  0.85490  0.11477  1.0000
  I   I382      1.0  0.76900  0.78794  0.71764  1.0000
  I   I383      1.0  0.90640  0.94912  0.03241  1.0000
  I   I384      1.0  0.62050  0.29766  0.76064  1.0000
