data_image0
_chemical_formula_structural       Ti96I384
_chemical_formula_sum              "Ti96 I384"
_cell_length_a       68.3772
_cell_length_b       68.2203
_cell_length_c       33.4107
_cell_angle_alpha    88.7757
_cell_angle_beta     88.7757
_cell_angle_gamma    62.1586

_space_group_name_H-M_alt    "P 1"
_space_group_IT_number       1

loop_
  _space_group_symop_operation_xyz
  'x, y, z'

loop_
  _atom_site_type_symbol
  _atom_site_label
  _atom_site_symmetry_multiplicity
  _atom_site_fract_x
  _atom_site_fract_y
  _atom_site_fract_z
  _atom_site_occupancy
  Ti  Ti1       1.0  0.10306  0.81900  0.00280  1.0000
  Ti  Ti2       1.0  0.92246  0.07866  0.96778  1.0000
  Ti  Ti3       1.0  0.53097  0.97437  0.08443  1.0000
  Ti  Ti4       1.0  0.83947  0.36903  0.16293  1.0000
  Ti  Ti5       1.0  0.50323  0.86363  0.25137  1.0000
  Ti  Ti6       1.0  0.85892  0.82633  0.04835  1.0000
  Ti  Ti7       1.0  0.95819  0.42377  0.55397  1.0000
  Ti  Ti8       1.0  0.23071  0.79085  0.40681  1.0000
  Ti  Ti9       1.0  0.19913  0.05908  0.96083  1.0000
  Ti  Ti10      1.0  0.00520  0.71166  0.52720  1.0000
  Ti  Ti11      1.0  0.30051  0.19254  0.60020  1.0000
  Ti  Ti12      1.0  0.17515  0.60217  0.79895  1.0000
  Ti  Ti13      1.0  0.93126  0.12414  0.39070  1.0000
  Ti  Ti14      1.0  0.98503  0.01600  0.71808  1.0000
  Ti  Ti15      1.0  0.83334  0.93549  0.44069  1.0000
  Ti  Ti16      1.0  0.02674  0.74448  0.45554  1.0000
  Ti  Ti17      1.0  0.31899  0.02477  0.52952  1.0000
  Ti  Ti18      1.0  0.60778  0.80343  0.79388  1.0000
  Ti  Ti19      1.0  0.51270  0.64258  0.74546  1.0000
  Ti  Ti20      1.0  0.19687  0.12267  0.67285  1.0000
  Ti  Ti21      1.0  0.21242  0.82749  0.32960  1.0000
  Ti  Ti22      1.0  0.61555  0.83684  0.30982  1.0000
  Ti  Ti23      1.0  0.42105  0.15709  0.46061  1.0000
  Ti  Ti24      1.0  0.21061  0.82211  0.90967  1.0000
  Ti  Ti25      1.0  0.49588  0.90595  0.54069  1.0000
  Ti  Ti26      1.0  0.36126  0.77610  0.88648  1.0000
  Ti  Ti27      1.0  0.75380  0.24230  0.64548  1.0000
  Ti  Ti28      1.0  0.77098  0.57185  0.35300  1.0000
  Ti  Ti29      1.0  0.08727  0.77469  0.14626  1.0000
  Ti  Ti30      1.0  0.42430  0.96546  0.84341  1.0000
  Ti  Ti31      1.0  0.20763  0.46419  0.12081  1.0000
  Ti  Ti32      1.0  0.99089  0.23477  0.80680  1.0000
  Ti  Ti33      1.0  0.13447  0.85309  0.56293  1.0000
  Ti  Ti34      1.0  0.32799  0.32533  0.42006  1.0000
  Ti  Ti35      1.0  0.73621  0.57554  0.52407  1.0000
  Ti  Ti36      1.0  0.04478  0.11416  0.03424  1.0000
  Ti  Ti37      1.0  0.17527  0.30790  0.44658  1.0000
  Ti  Ti38      1.0  0.38258  0.40588  0.11334  1.0000
  Ti  Ti39      1.0  0.84911  0.58985  0.24368  1.0000
  Ti  Ti40      1.0  0.21775  0.35581  0.65322  1.0000
  Ti  Ti41      1.0  0.48914  0.43439  0.55481  1.0000
  Ti  Ti42      1.0  0.12824  0.13895  0.41320  1.0000
  Ti  Ti43      1.0  0.29272  0.94419  0.10656  1.0000
  Ti  Ti44      1.0  0.82083  0.62109  0.72556  1.0000
  Ti  Ti45      1.0  0.20135  0.69098  0.45170  1.0000
  Ti  Ti46      1.0  0.74450  0.31088  0.45357  1.0000
  Ti  Ti47      1.0  0.29110  0.56256  0.51320  1.0000
  Ti  Ti48      1.0  0.78106  0.08124  0.25183  1.0000
  Ti  Ti49      1.0  0.99054  0.21099  0.28884  1.0000
  Ti  Ti50      1.0  0.08513  0.33729  0.58438  1.0000
  Ti  Ti51      1.0  0.92817  0.11414  0.04086  1.0000
  Ti  Ti52      1.0  0.81660  0.12480  0.43828  1.0000
  Ti  Ti53      1.0  0.41248  0.70909  0.36801  1.0000
  Ti  Ti54      1.0  0.82958  0.86908  0.13789  1.0000
  Ti  Ti55      1.0  0.91316  0.42229  0.63595  1.0000
  Ti  Ti56      1.0  0.94533  0.39034  0.88387  1.0000
  Ti  Ti57      1.0  0.21344  0.10532  0.91784  1.0000
  Ti  Ti58      1.0  0.61738  0.31005  0.57557  1.0000
  Ti  Ti59      1.0  0.37853  0.23465  0.22273  1.0000
  Ti  Ti60      1.0  0.21465  0.58895  0.91521  1.0000
  Ti  Ti61      1.0  0.90749  0.92276  0.40958  1.0000
  Ti  Ti62      1.0  0.90238  0.10378  0.36902  1.0000
  Ti  Ti63      1.0  0.00849  0.94720  0.74804  1.0000
  Ti  Ti64      1.0  0.61137  0.84628  0.84418  1.0000
  Ti  Ti65      1.0  0.68355  0.98487  0.89657  1.0000
  Ti  Ti66      1.0  0.48464  0.13514  0.99170  1.0000
  Ti  Ti67      1.0  0.52737  0.65000  0.86809  1.0000
  Ti  Ti68      1.0  0.69934  0.57246  0.95201  1.0000
  Ti  Ti69      1.0  0.36827  0.82820  0.94946  1.0000
  Ti  Ti70      1.0  0.36579  0.90214  0.13128  1.0000
  Ti  Ti71      1.0  0.37614  0.16846  0.36475  1.0000
  Ti  Ti72      1.0  0.13109  0.18781  0.07265  1.0000
  Ti  Ti73      1.0  0.76663  0.22265  0.74704  1.0000
  Ti  Ti74      1.0  0.52471  0.93980  0.51081  1.0000
  Ti  Ti75      1.0  0.38708  0.75076  0.76516  1.0000
  Ti  Ti76      1.0  0.37972  0.98661  0.76674  1.0000
  Ti  Ti77      1.0  0.75143  0.56664  0.26232  1.0000
  Ti  Ti78      1.0  0.01420  0.83687  0.13824  1.0000
  Ti  Ti79      1.0  0.71752  0.41578  0.93779  1.0000
  Ti  Ti80      1.0  0.83627  0.35998  0.27965  1.0000
  Ti  Ti81      1.0  0.92843  0.27042  0.85071  1.0000
  Ti  Ti82      1.0  0.30873  0.37908  0.48316  1.0000
  Ti  Ti83      1.0  0.68530  0.60165  0.62118  1.0000
  Ti  Ti84      1.0  0.08715  0.07338  0.14365  1.0000
  Ti  Ti85      1.0  0.14717  0.31667  0.37608  1.0000
  Ti  Ti86      1.0  0.44883  0.18922  0.91664  1.0000
  Ti  Ti87      1.0  0.90947  0.57814  0.18092  1.0000
  Ti  Ti88      1.0  0.52760  0.37324  0.38980  1.0000
  Ti  Ti89      1.0  0.50341  0.40340  0.63491  1.0000
  Ti  Ti90      1.0  0.12387  0.10495  0.52317  1.0000
  Ti  Ti91      1.0  0.22000  0.70830  0.71880  1.0000
  Ti  Ti92      1.0  0.31056  0.59164  0.00780  1.0000
  Ti  Ti93      1.0  0.91250  0.61963  0.03837  1.0000
  Ti  Ti94      1.0  0.74612  0.13417  0.20622  1.0000
  Ti  Ti95      1.0  0.75149  0.35935  0.44989  1.0000
  Ti  Ti96      1.0  0.34093  0.58759  0.46191  1.0000
  I   I1        1.0  0.29563  0.53490  0.57032  1.0000
  I   I2        1.0  0.93906  0.14456  0.02507  1.0000
  I   I3        1.0  0.00457  0.20403  0.21033  1.0000
  I   I4        1.0  0.43662  0.72748  0.34103  1.0000
  I   I5        1.0  0.84132  0.79909  0.05075  1.0000
  I   I6        1.0  0.79197  0.87991  0.18156  1.0000
  I   I7        1.0  0.23052  0.79838  0.48202  1.0000
  I   I8        1.0  0.90682  0.42341  0.87208  1.0000
  I   I9        1.0  0.25236  0.10354  0.93346  1.0000
  I   I10       1.0  0.00893  0.75107  0.53455  1.0000
  I   I11       1.0  0.28022  0.23444  0.58181  1.0000
  I   I12       1.0  0.46880  0.86801  0.21515  1.0000
  I   I13       1.0  0.95252  0.13900  0.34024  1.0000
  I   I14       1.0  0.96438  0.01985  0.64585  1.0000
  I   I15       1.0  0.81358  0.97236  0.48919  1.0000
  I   I16       1.0  0.06390  0.72073  0.48779  1.0000
  I   I17       1.0  0.48281  0.16554  0.04439  1.0000
  I   I18       1.0  0.60499  0.83940  0.75395  1.0000
  I   I19       1.0  0.22120  0.11325  0.60411  1.0000
  I   I20       1.0  0.30006  0.17556  0.66788  1.0000
  I   I21       1.0  0.22829  0.84231  0.26616  1.0000
  I   I22       1.0  0.45904  0.15995  0.47789  1.0000
  I   I23       1.0  0.40599  0.18833  0.39954  1.0000
  I   I24       1.0  0.38217  0.87048  0.18895  1.0000
  I   I25       1.0  0.51685  0.97944  0.50077  1.0000
  I   I26       1.0  0.42189  0.75041  0.72793  1.0000
  I   I27       1.0  0.79466  0.23625  0.68385  1.0000
  I   I28       1.0  0.78141  0.53324  0.39992  1.0000
  I   I29       1.0  0.07560  0.76462  0.21658  1.0000
  I   I30       1.0  0.42696  0.98025  0.91000  1.0000
  I   I31       1.0  0.87902  0.34069  0.28837  1.0000
  I   I32       1.0  0.92728  0.24612  0.90875  1.0000
  I   I33       1.0  0.74851  0.38029  0.90456  1.0000
  I   I34       1.0  0.74267  0.59252  0.45966  1.0000
  I   I35       1.0  0.06011  0.13688  0.99796  1.0000
  I   I36       1.0  0.32100  0.35335  0.36250  1.0000
  I   I37       1.0  0.15201  0.28557  0.32848  1.0000
  I   I38       1.0  0.93376  0.54385  0.14007  1.0000
  I   I39       1.0  0.14003  0.29585  0.43988  1.0000
  I   I40       1.0  0.45240  0.43546  0.52629  1.0000
  I   I41       1.0  0.09551  0.14170  0.47575  1.0000
  I   I42       1.0  0.25824  0.32465  0.65692  1.0000
  I   I43       1.0  0.65962  0.29366  0.54825  1.0000
  I   I44       1.0  0.83610  0.58254  0.69515  1.0000
  I   I45       1.0  0.18545  0.68888  0.52416  1.0000
  I   I46       1.0  0.72559  0.39510  0.40577  1.0000
  I   I47       1.0  0.26328  0.56013  0.46457  1.0000
  I   I48       1.0  0.79803  0.04156  0.28562  1.0000
  I   I49       1.0  0.02113  0.19597  0.34283  1.0000
  I   I50       1.0  0.89727  0.09721  0.06350  1.0000
  I   I51       1.0  0.90678  0.12707  0.96328  1.0000
  I   I52       1.0  0.86379  0.32388  0.18683  1.0000
  I   I53       1.0  0.38614  0.71777  0.30631  1.0000
  I   I54       1.0  0.84990  0.88176  0.18852  1.0000
  I   I55       1.0  0.95200  0.46277  0.58696  1.0000
  I   I56       1.0  0.21186  0.79004  0.30227  1.0000
  I   I57       1.0  0.17650  0.04333  0.93062  1.0000
  I   I58       1.0  0.04137  0.68523  0.56979  1.0000
  I   I59       1.0  0.34775  0.22935  0.25616  1.0000
  I   I60       1.0  0.21901  0.55297  0.94405  1.0000
  I   I61       1.0  0.91605  0.08874  0.44284  1.0000
  I   I62       1.0  0.89450  0.15528  0.41909  1.0000
  I   I63       1.0  0.01422  0.98266  0.76592  1.0000
  I   I64       1.0  0.99170  0.73704  0.45108  1.0000
  I   I65       1.0  0.70991  0.00321  0.91932  1.0000
  I   I66       1.0  0.46044  0.12082  0.02577  1.0000
  I   I67       1.0  0.53089  0.60723  0.79809  1.0000
  I   I68       1.0  0.22202  0.08502  0.71091  1.0000
  I   I69       1.0  0.32322  0.85378  0.96128  1.0000
  I   I70       1.0  0.34126  0.91409  0.06204  1.0000
  I   I71       1.0  0.43497  0.12823  0.40386  1.0000
  I   I72       1.0  0.15126  0.21326  0.06473  1.0000
  I   I73       1.0  0.77297  0.20103  0.66617  1.0000
  I   I74       1.0  0.37782  0.73711  0.92736  1.0000
  I   I75       1.0  0.39266  0.77768  0.82462  1.0000
  I   I76       1.0  0.79786  0.54434  0.29755  1.0000
  I   I77       1.0  0.74675  0.53015  0.27213  1.0000
  I   I78       1.0  0.09056  0.79040  0.98112  1.0000
  I   I79       1.0  0.12712  0.89260  0.59227  1.0000
  I   I80       1.0  0.22437  0.48018  0.16864  1.0000
  I   I81       1.0  0.02921  0.20781  0.83374  1.0000
  I   I82       1.0  0.35085  0.34564  0.45841  1.0000
  I   I83       1.0  0.64821  0.62027  0.56087  1.0000
  I   I84       1.0  0.00022  0.14221  0.03500  1.0000
  I   I85       1.0  0.13568  0.35028  0.42977  1.0000
  I   I86       1.0  0.47050  0.20896  0.94430  1.0000
  I   I87       1.0  0.84416  0.62246  0.28652  1.0000
  I   I88       1.0  0.18629  0.34450  0.66306  1.0000
  I   I89       1.0  0.54379  0.36769  0.66480  1.0000
  I   I90       1.0  0.15638  0.11054  0.55190  1.0000
  I   I91       1.0  0.22392  0.74175  0.68658  1.0000
  I   I92       1.0  0.31092  0.62117  0.95799  1.0000
  I   I93       1.0  0.83379  0.62690  0.79192  1.0000
  I   I94       1.0  0.76820  0.09512  0.16809  1.0000
  I   I95       1.0  0.76337  0.27044  0.46697  1.0000
  I   I96       1.0  0.37993  0.54630  0.46609  1.0000
  I   I97       1.0  0.53355  0.00947  0.05680  1.0000
  I   I98       1.0  0.07454  0.85401  0.04324  1.0000
  I   I99       1.0  0.88642  0.08171  0.94390  1.0000
  I   I100      1.0  0.87503  0.36703  0.12626  1.0000
  I   I101      1.0  0.83420  0.11461  0.51148  1.0000
  I   I102      1.0  0.50974  0.84416  0.32152  1.0000
  I   I103      1.0  0.89833  0.39439  0.61597  1.0000
  I   I104      1.0  0.00193  0.40122  0.55478  1.0000
  I   I105      1.0  0.17687  0.09264  0.90787  1.0000
  I   I106      1.0  0.14040  0.64086  0.77344  1.0000
  I   I107      1.0  0.97827  0.69594  0.52752  1.0000
  I   I108      1.0  0.16979  0.58798  0.72323  1.0000
  I   I109      1.0  0.81873  0.90749  0.47344  1.0000
  I   I110      1.0  0.87979  0.13938  0.32276  1.0000
  I   I111      1.0  0.00432  0.93723  0.82298  1.0000
  I   I112      1.0  0.59376  0.88744  0.82782  1.0000
  I   I113      1.0  0.64680  0.02217  0.88194  1.0000
  I   I114      1.0  0.35389  0.02822  0.54431  1.0000
  I   I115      1.0  0.56248  0.62520  0.90533  1.0000
  I   I116      1.0  0.49437  0.64572  0.89458  1.0000
  I   I117      1.0  0.73026  0.55752  0.89289  1.0000
  I   I118      1.0  0.58187  0.84750  0.35639  1.0000
  I   I119      1.0  0.37511  0.93506  0.12438  1.0000
  I   I120      1.0  0.16363  0.14711  0.08820  1.0000
  I   I121      1.0  0.76991  0.24898  0.80093  1.0000
  I   I122      1.0  0.49672  0.87274  0.58695  1.0000
  I   I123      1.0  0.34518  0.76771  0.82007  1.0000
  I   I124      1.0  0.37550  0.98384  0.85550  1.0000
  I   I125      1.0  0.80295  0.56670  0.40110  1.0000
  I   I126      1.0  0.99905  0.83479  0.20689  1.0000
  I   I127      1.0  0.11433  0.86332  0.49415  1.0000
  I   I128      1.0  0.80170  0.37035  0.22541  1.0000
  I   I129      1.0  0.97451  0.25464  0.88102  1.0000
  I   I130      1.0  0.04136  0.08716  0.97884  1.0000
  I   I131      1.0  0.28364  0.36185  0.45654  1.0000
  I   I132      1.0  0.72129  0.59351  0.67629  1.0000
  I   I133      1.0  0.85474  0.55273  0.28544  1.0000
  I   I134      1.0  0.37548  0.44454  0.14223  1.0000
  I   I135      1.0  0.41240  0.22372  0.93500  1.0000
  I   I136      1.0  0.14389  0.15727  0.46485  1.0000
  I   I137      1.0  0.53432  0.36477  0.31591  1.0000
  I   I138      1.0  0.51002  0.38036  0.56180  1.0000
  I   I139      1.0  0.19958  0.69270  0.67904  1.0000
  I   I140      1.0  0.33219  0.55112  0.97940  1.0000
  I   I141      1.0  0.87516  0.62119  0.05693  1.0000
  I   I142      1.0  0.74585  0.10908  0.28990  1.0000
  I   I143      1.0  0.71342  0.31346  0.49989  1.0000
  I   I144      1.0  0.34540  0.61760  0.49892  1.0000
  I   I145      1.0  0.11301  0.84131  0.94772  1.0000
  I   I146      1.0  0.93161  0.04719  0.02332  1.0000
  I   I147      1.0  0.57556  0.94822  0.05879  1.0000
  I   I148      1.0  0.83031  0.08030  0.41018  1.0000
  I   I149      1.0  0.49460  0.90508  0.26456  1.0000
  I   I150      1.0  0.89547  0.79289  0.07050  1.0000
  I   I151      1.0  0.88272  0.44524  0.68463  1.0000
  I   I152      1.0  0.23674  0.75059  0.39561  1.0000
  I   I153      1.0  0.21556  0.11774  0.84671  1.0000
  I   I154      1.0  0.27057  0.98272  0.13786  1.0000
  I   I155      1.0  0.28579  0.17974  0.54354  1.0000
  I   I156      1.0  0.20549  0.59791  0.99414  1.0000
  I   I157      1.0  0.80250  0.94728  0.37975  1.0000
  I   I158      1.0  0.96872  0.94801  0.73111  1.0000
  I   I159      1.0  0.90373  0.94983  0.46635  1.0000
  I   I160      1.0  0.63731  0.77793  0.74061  1.0000
  I   I161      1.0  0.32778  0.98799  0.57021  1.0000
  I   I162      1.0  0.61277  0.77273  0.84477  1.0000
  I   I163      1.0  0.47126  0.67620  0.75764  1.0000
  I   I164      1.0  0.70051  0.58086  0.02972  1.0000
  I   I165      1.0  0.22592  0.83990  0.39747  1.0000
  I   I166      1.0  0.60795  0.87438  0.28267  1.0000
  I   I167      1.0  0.36895  0.13570  0.35424  1.0000
  I   I168      1.0  0.17997  0.81018  0.93313  1.0000
  I   I169      1.0  0.48112  0.94895  0.51365  1.0000
  I   I170      1.0  0.56789  0.92661  0.51029  1.0000
  I   I171      1.0  0.75328  0.27927  0.60358  1.0000
  I   I172      1.0  0.33720  0.99475  0.77296  1.0000
  I   I173      1.0  0.04322  0.78993  0.11237  1.0000
  I   I174      1.0  0.41039  0.94035  0.78549  1.0000
  I   I175      1.0  0.24334  0.43233  0.08574  1.0000
  I   I176      1.0  0.01906  0.25062  0.78962  1.0000
  I   I177      1.0  0.74111  0.43508  0.95125  1.0000
  I   I178      1.0  0.31325  0.36322  0.55414  1.0000
  I   I179      1.0  0.70992  0.56274  0.58503  1.0000
  I   I180      1.0  0.08005  0.06164  0.21757  1.0000
  I   I181      1.0  0.18878  0.31153  0.36380  1.0000
  I   I182      1.0  0.49436  0.15052  0.91538  1.0000
  I   I183      1.0  0.93368  0.59870  0.18018  1.0000
  I   I184      1.0  0.53992  0.40009  0.41859  1.0000
  I   I185      1.0  0.49834  0.44691  0.48623  1.0000
  I   I186      1.0  0.09610  0.17401  0.37818  1.0000
  I   I187      1.0  0.33378  0.59962  0.05975  1.0000
  I   I188      1.0  0.83634  0.63743  0.67226  1.0000
  I   I189      1.0  0.20139  0.66210  0.40275  1.0000
  I   I190      1.0  0.72061  0.32160  0.38691  1.0000
  I   I191      1.0  0.07720  0.37449  0.61825  1.0000
  I   I192      1.0  0.82044  0.06544  0.20835  1.0000
  I   I193      1.0  0.12187  0.77766  0.17915  1.0000
  I   I194      1.0  0.05178  0.32846  0.60594  1.0000
  I   I195      1.0  0.49673  0.97414  0.05689  1.0000
  I   I196      1.0  0.81555  0.37187  0.09803  1.0000
  I   I197      1.0  0.59157  0.30325  0.53434  1.0000
  I   I198      1.0  0.87443  0.82884  0.98069  1.0000
  I   I199      1.0  0.91006  0.44290  0.56979  1.0000
  I   I200      1.0  0.92678  0.37299  0.92635  1.0000
  I   I201      1.0  0.16856  0.08563  0.01502  1.0000
  I   I202      1.0  0.41254  0.21053  0.26743  1.0000
  I   I203      1.0  0.38222  0.85222  0.91165  1.0000
  I   I204      1.0  0.21726  0.57873  0.82965  1.0000
  I   I205      1.0  0.95749  0.11414  0.45218  1.0000
  I   I206      1.0  0.04665  0.91351  0.73170  1.0000
  I   I207      1.0  0.86218  0.94153  0.38806  1.0000
  I   I208      1.0  0.03155  0.74127  0.37633  1.0000
  I   I209      1.0  0.33561  0.01035  0.46193  1.0000
  I   I210      1.0  0.57117  0.80583  0.77052  1.0000
  I   I211      1.0  0.52384  0.67046  0.78587  1.0000
  I   I212      1.0  0.16776  0.11086  0.65806  1.0000
  I   I213      1.0  0.38007  0.82936  0.02740  1.0000
  I   I214      1.0  0.65937  0.81115  0.31872  1.0000
  I   I215      1.0  0.39444  0.16752  0.29728  1.0000
  I   I216      1.0  0.20386  0.86161  0.90777  1.0000
  I   I217      1.0  0.46087  0.90747  0.50400  1.0000
  I   I218      1.0  0.40719  0.70745  0.78995  1.0000
  I   I219      1.0  0.72537  0.24316  0.59382  1.0000
  I   I220      1.0  0.73096  0.57557  0.34126  1.0000
  I   I221      1.0  0.09742  0.73027  0.11853  1.0000
  I   I222      1.0  0.44986  0.97353  0.78945  1.0000
  I   I223      1.0  0.18839  0.44059  0.14880  1.0000
  I   I224      1.0  0.98600  0.20558  0.76576  1.0000
  I   I225      1.0  0.17696  0.83546  0.56987  1.0000
  I   I226      1.0  0.31443  0.39791  0.40971  1.0000
  I   I227      1.0  0.66644  0.59436  0.68498  1.0000
  I   I228      1.0  0.09014  0.08846  0.06370  1.0000
  I   I229      1.0  0.18519  0.32644  0.50524  1.0000
  I   I230      1.0  0.41932  0.39459  0.07295  1.0000
  I   I231      1.0  0.80911  0.60163  0.21304  1.0000
  I   I232      1.0  0.96041  0.04487  0.77097  1.0000
  I   I233      1.0  0.52981  0.41939  0.59860  1.0000
  I   I234      1.0  0.09657  0.11987  0.58039  1.0000
  I   I235      1.0  0.27635  0.92506  0.15063  1.0000
  I   I236      1.0  0.92112  0.61628  0.96361  1.0000
  I   I237      1.0  0.21940  0.70336  0.79601  1.0000
  I   I238      1.0  0.77229  0.33175  0.38659  1.0000
  I   I239      1.0  0.34307  0.60378  0.39270  1.0000
  I   I240      1.0  0.80427  0.10222  0.27675  1.0000
  I   I241      1.0  0.97647  0.25059  0.32011  1.0000
  I   I242      1.0  0.96073  0.08255  0.00240  1.0000
  I   I243      1.0  0.52055  0.97853  0.16074  1.0000
  I   I244      1.0  0.80167  0.16632  0.46530  1.0000
  I   I245      1.0  0.43750  0.66971  0.38818  1.0000
  I   I246      1.0  0.83895  0.82616  0.14707  1.0000
  I   I247      1.0  0.94388  0.39903  0.68716  1.0000
  I   I248      1.0  0.18944  0.81618  0.38767  1.0000
  I   I249      1.0  0.24161  0.05506  0.95070  1.0000
  I   I250      1.0  0.38175  0.22008  0.15257  1.0000
  I   I251      1.0  0.34549  0.17398  0.60493  1.0000
  I   I252      1.0  0.17357  0.61481  0.87530  1.0000
  I   I253      1.0  0.89952  0.07599  0.31965  1.0000
  I   I254      1.0  0.00531  0.97050  0.68099  1.0000
  I   I255      1.0  0.91946  0.87958  0.41181  1.0000
  I   I256      1.0  0.67563  0.98338  0.97172  1.0000
  I   I257      1.0  0.27812  0.05041  0.50708  1.0000
  I   I258      1.0  0.62508  0.85415  0.91911  1.0000
  I   I259      1.0  0.52591  0.68433  0.89527  1.0000
  I   I260      1.0  0.68176  0.54594  0.95451  1.0000
  I   I261      1.0  0.27024  0.77448  0.36559  1.0000
  I   I262      1.0  0.60501  0.82224  0.24758  1.0000
  I   I263      1.0  0.33992  0.20734  0.37887  1.0000
  I   I264      1.0  0.22520  0.81515  0.83393  1.0000
  I   I265      1.0  0.53122  0.91024  0.58326  1.0000
  I   I266      1.0  0.39164  0.77946  0.94544  1.0000
  I   I267      1.0  0.80145  0.18962  0.77788  1.0000
  I   I268      1.0  0.70935  0.59607  0.25701  1.0000
  I   I269      1.0  0.01743  0.87368  0.13771  1.0000
  I   I270      1.0  0.39391  0.96906  0.69796  1.0000
  I   I271      1.0  0.17710  0.49260  0.07208  1.0000
  I   I272      1.0  0.90976  0.31226  0.86569  1.0000
  I   I273      1.0  0.12438  0.82073  0.57848  1.0000
  I   I274      1.0  0.33003  0.30170  0.48624  1.0000
  I   I275      1.0  0.76243  0.58246  0.56949  1.0000
  I   I276      1.0  0.12778  0.05581  0.17134  1.0000
  I   I277      1.0  0.27858  0.42107  0.50843  1.0000
  I   I278      1.0  0.38066  0.38712  0.17949  1.0000
  I   I279      1.0  0.88011  0.55596  0.18935  1.0000
  I   I280      1.0  0.48499  0.38842  0.41206  1.0000
  I   I281      1.0  0.47567  0.39187  0.68117  1.0000
  I   I282      1.0  0.13187  0.09654  0.42813  1.0000
  I   I283      1.0  0.27764  0.94569  0.03512  1.0000
  I   I284      1.0  0.91268  0.65592  0.06891  1.0000
  I   I285      1.0  0.16945  0.73158  0.42102  1.0000
  I   I286      1.0  0.77348  0.31999  0.50583  1.0000
  I   I287      1.0  0.32213  0.58017  0.53745  1.0000
  I   I288      1.0  0.75925  0.15501  0.15629  1.0000
  I   I289      1.0  0.95662  0.20238  0.30764  1.0000
  I   I290      1.0  0.08061  0.33280  0.50974  1.0000
  I   I291      1.0  0.92062  0.12796  0.11466  1.0000
  I   I292      1.0  0.77497  0.13420  0.40166  1.0000
  I   I293      1.0  0.39033  0.72801  0.43288  1.0000
  I   I294      1.0  0.87011  0.85550  0.08658  1.0000
  I   I295      1.0  0.95630  0.42094  0.47561  1.0000
  I   I296      1.0  0.95055  0.37210  0.81437  1.0000
  I   I297      1.0  0.18335  0.14204  0.94232  1.0000
  I   I298      1.0  0.60267  0.35202  0.58497  1.0000
  I   I299      1.0  0.03931  0.68157  0.46834  1.0000
  I   I300      1.0  0.25570  0.58025  0.90469  1.0000
  I   I301      1.0  0.91266  0.93384  0.33638  1.0000
  I   I302      1.0  0.94479  0.09029  0.33731  1.0000
  I   I303      1.0  0.21012  0.37916  0.72038  1.0000
  I   I304      1.0  0.64993  0.80687  0.81582  1.0000
  I   I305      1.0  0.01068  0.79035  0.46300  1.0000
  I   I306      1.0  0.52349  0.10480  0.01247  1.0000
  I   I307      1.0  0.52682  0.64688  0.67732  1.0000
  I   I308      1.0  0.18105  0.15246  0.73166  1.0000
  I   I309      1.0  0.17583  0.86505  0.32010  1.0000
  I   I310      1.0  0.40460  0.87082  0.10646  1.0000
  I   I311      1.0  0.40679  0.16393  0.53562  1.0000
  I   I312      1.0  0.09327  0.20489  0.11052  1.0000
  I   I313      1.0  0.72913  0.26358  0.70835  1.0000
  I   I314      1.0  0.52091  0.88428  0.47984  1.0000
  I   I315      1.0  0.36764  0.74475  0.70717  1.0000
  I   I316      1.0  0.38102  0.02350  0.77402  1.0000
  I   I317      1.0  0.76111  0.61269  0.32094  1.0000
  I   I318      1.0  0.98036  0.83964  0.09719  1.0000
  I   I319      1.0  0.69882  0.44424  0.87857  1.0000
  I   I320      1.0  0.84614  0.39229  0.23363  1.0000
  I   I321      1.0  0.95845  0.27086  0.78212  1.0000
  I   I322      1.0  0.30955  0.30207  0.39556  1.0000
  I   I323      1.0  0.70743  0.61551  0.56656  1.0000
  I   I324      1.0  0.04614  0.10112  0.12891  1.0000
  I   I325      1.0  0.20392  0.26601  0.44801  1.0000
  I   I326      1.0  0.43873  0.19918  0.84179  1.0000
  I   I327      1.0  0.86025  0.61344  0.17701  1.0000
  I   I328      1.0  0.22868  0.37828  0.60684  1.0000
  I   I329      1.0  0.47728  0.46727  0.60085  1.0000
  I   I330      1.0  0.15894  0.13813  0.35939  1.0000
  I   I331      1.0  0.23948  0.68795  0.43965  1.0000
  I   I332      1.0  0.61469  0.29284  0.64670  1.0000
  I   I333      1.0  0.77782  0.64957  0.71701  1.0000
  I   I334      1.0  0.72347  0.17146  0.25062  1.0000
  I   I335      1.0  0.72104  0.36354  0.50230  1.0000
  I   I336      1.0  0.31040  0.57454  0.44253  1.0000
  I   I337      1.0  0.14048  0.80031  0.04597  1.0000
  I   I338      1.0  0.11327  0.30506  0.62650  1.0000
  I   I339      1.0  0.93871  0.08162  0.90147  1.0000
  I   I340      1.0  0.84585  0.31637  0.28118  1.0000
  I   I341      1.0  0.54213  0.82761  0.23674  1.0000
  I   I342      1.0  0.82079  0.86607  0.06093  1.0000
  I   I343      1.0  0.96006  0.38996  0.59490  1.0000
  I   I344      1.0  0.97067  0.39617  0.93200  1.0000
  I   I345      1.0  0.21876  0.01723  0.99409  1.0000
  I   I346      1.0  0.32733  0.92690  0.16581  1.0000
  I   I347      1.0  0.38540  0.27034  0.21672  1.0000
  I   I348      1.0  0.16076  0.57094  0.81470  1.0000
  I   I349      1.0  0.87402  0.92070  0.48007  1.0000
  I   I350      1.0  0.85307  0.12015  0.40357  1.0000
  I   I351      1.0  0.00936  0.03514  0.71102  1.0000
  I   I352      1.0  0.58207  0.83643  0.88157  1.0000
  I   I353      1.0  0.67445  0.95660  0.85914  1.0000
  I   I354      1.0  0.45249  0.14841  0.93563  1.0000
  I   I355      1.0  0.48909  0.62198  0.72359  1.0000
  I   I356      1.0  0.67005  0.61204  0.93135  1.0000
  I   I357      1.0  0.35180  0.82095  0.87374  1.0000
  I   I358      1.0  0.24636  0.79145  0.94717  1.0000
  I   I359      1.0  0.37486  0.16433  0.45338  1.0000
  I   I360      1.0  0.12236  0.18842  0.99935  1.0000
  I   I361      1.0  0.73970  0.20628  0.77545  1.0000
  I   I362      1.0  0.53756  0.92510  0.43666  1.0000
  I   I363      1.0  0.32279  0.78265  0.92817  1.0000
  I   I364      1.0  0.44749  0.92503  0.86679  1.0000
  I   I365      1.0  0.75856  0.56416  0.18079  1.0000
  I   I366      1.0  0.06257  0.81987  0.16581  1.0000
  I   I367      1.0  0.69111  0.39925  0.96064  1.0000
  I   I368      1.0  0.81553  0.37200  0.34854  1.0000
  I   I369      1.0  0.90074  0.26602  0.80362  1.0000
  I   I370      1.0  0.37132  0.29963  0.39424  1.0000
  I   I371      1.0  0.76339  0.53491  0.52555  1.0000
  I   I372      1.0  0.07828  0.04328  0.11544  1.0000
  I   I373      1.0  0.11916  0.34819  0.32710  1.0000
  I   I374      1.0  0.35448  0.41127  0.05800  1.0000
  I   I375      1.0  0.91649  0.56384  0.25470  1.0000
  I   I376      1.0  0.54790  0.33774  0.43424  1.0000
  I   I377      1.0  0.50139  0.43140  0.69103  1.0000
  I   I378      1.0  0.13873  0.06475  0.55303  1.0000
  I   I379      1.0  0.26340  0.68456  0.69492  1.0000
  I   I380      1.0  0.26769  0.60945  0.00737  1.0000
  I   I381      1.0  0.94037  0.57789  0.05728  1.0000
  I   I382      1.0  0.70756  0.14091  0.17884  1.0000
  I   I383      1.0  0.77597  0.37998  0.46461  1.0000
  I   I384      1.0  0.26103  0.60120  0.52746  1.0000
