data_image0
_chemical_formula_structural       Ti96I384
_chemical_formula_sum              "Ti96 I384"
_cell_length_a       73.2747
_cell_length_b       73.3077
_cell_length_c       35.8317
_cell_angle_alpha    88.7757
_cell_angle_beta     88.7757
_cell_angle_gamma    62.1586

_space_group_name_H-M_alt    "P 1"
_space_group_IT_number       1

loop_
  _space_group_symop_operation_xyz
  'x, y, z'

loop_
  _atom_site_type_symbol
  _atom_site_label
  _atom_site_symmetry_multiplicity
  _atom_site_fract_x
  _atom_site_fract_y
  _atom_site_fract_z
  _atom_site_occupancy
  Ti  Ti1       1.0  0.65230  0.41129  0.84056  1.0000
  Ti  Ti2       1.0  0.35165  0.79481  0.31071  1.0000
  Ti  Ti3       1.0  0.28892  0.03414  0.00810  1.0000
  Ti  Ti4       1.0  0.12544  0.26474  0.96013  1.0000
  Ti  Ti5       1.0  0.50620  0.73258  0.47321  1.0000
  Ti  Ti6       1.0  0.37961  0.30481  0.37063  1.0000
  Ti  Ti7       1.0  0.54999  0.76604  0.01863  1.0000
  Ti  Ti8       1.0  0.22599  0.55371  0.72430  1.0000
  Ti  Ti9       1.0  0.37936  0.27160  0.77704  1.0000
  Ti  Ti10      1.0  0.65043  0.61044  0.10429  1.0000
  Ti  Ti11      1.0  0.19416  0.14839  0.05219  1.0000
  Ti  Ti12      1.0  0.86271  0.12608  0.96848  1.0000
  Ti  Ti13      1.0  0.79144  0.78261  0.48321  1.0000
  Ti  Ti14      1.0  0.08223  0.25694  0.89107  1.0000
  Ti  Ti15      1.0  0.77190  0.62846  0.55721  1.0000
  Ti  Ti16      1.0  0.26854  0.40675  0.35222  1.0000
  Ti  Ti17      1.0  0.06373  0.16478  0.17766  1.0000
  Ti  Ti18      1.0  0.22532  0.29918  0.83920  1.0000
  Ti  Ti19      1.0  0.02294  0.86193  0.28469  1.0000
  Ti  Ti20      1.0  0.30263  0.77229  0.50743  1.0000
  Ti  Ti21      1.0  0.19407  0.55849  0.65953  1.0000
  Ti  Ti22      1.0  0.03053  0.16430  0.41659  1.0000
  Ti  Ti23      1.0  0.15049  0.99586  0.38835  1.0000
  Ti  Ti24      1.0  0.79652  0.10370  0.08423  1.0000
  Ti  Ti25      1.0  0.60035  0.48975  0.26490  1.0000
  Ti  Ti26      1.0  0.57518  0.93515  0.80991  1.0000
  Ti  Ti27      1.0  0.69941  0.34451  0.25382  1.0000
  Ti  Ti28      1.0  0.30364  0.04610  0.37860  1.0000
  Ti  Ti29      1.0  0.32137  0.77952  0.07322  1.0000
  Ti  Ti30      1.0  0.36603  0.97087  0.35824  1.0000
  Ti  Ti31      1.0  0.33582  0.90199  0.55261  1.0000
  Ti  Ti32      1.0  0.38044  0.86669  0.87014  1.0000
  Ti  Ti33      1.0  0.37234  0.54462  0.90025  1.0000
  Ti  Ti34      1.0  0.73608  0.56403  0.30958  1.0000
  Ti  Ti35      1.0  0.11482  0.53594  0.55016  1.0000
  Ti  Ti36      1.0  0.77221  0.17731  0.17274  1.0000
  Ti  Ti37      1.0  0.98537  0.00594  0.76584  1.0000
  Ti  Ti38      1.0  0.60179  0.97550  0.36116  1.0000
  Ti  Ti39      1.0  0.77098  0.76681  0.93990  1.0000
  Ti  Ti40      1.0  0.61572  0.73650  0.60965  1.0000
  Ti  Ti41      1.0  0.72790  0.44258  0.04646  1.0000
  Ti  Ti42      1.0  0.96648  0.50635  0.96462  1.0000
  Ti  Ti43      1.0  0.85136  0.96276  0.71373  1.0000
  Ti  Ti44      1.0  0.66552  0.43142  0.06285  1.0000
  Ti  Ti45      1.0  0.15379  0.19919  0.47740  1.0000
  Ti  Ti46      1.0  0.37145  0.98058  0.01605  1.0000
  Ti  Ti47      1.0  0.26786  0.92649  0.86817  1.0000
  Ti  Ti48      1.0  0.06154  0.07690  0.03531  1.0000
  Ti  Ti49      1.0  0.74280  0.89738  0.36278  1.0000
  Ti  Ti50      1.0  0.98801  0.32871  0.27202  1.0000
  Ti  Ti51      1.0  0.29919  0.82541  0.31295  1.0000
  Ti  Ti52      1.0  0.83928  0.48010  0.57201  1.0000
  Ti  Ti53      1.0  0.84766  0.77917  0.10694  1.0000
  Ti  Ti54      1.0  0.72095  0.11876  0.49295  1.0000
  Ti  Ti55      1.0  0.58305  0.72660  0.94209  1.0000
  Ti  Ti56      1.0  0.10334  0.94689  0.66869  1.0000
  Ti  Ti57      1.0  0.34816  0.25771  0.83134  1.0000
  Ti  Ti58      1.0  0.37313  0.55090  0.68679  1.0000
  Ti  Ti59      1.0  0.46745  0.22605  0.73822  1.0000
  Ti  Ti60      1.0  0.88505  0.14561  0.02422  1.0000
  Ti  Ti61      1.0  0.75104  0.64192  0.48504  1.0000
  Ti  Ti62      1.0  0.74173  0.77942  0.49102  1.0000
  Ti  Ti63      1.0  0.15858  0.64277  0.04538  1.0000
  Ti  Ti64      1.0  0.20556  0.33018  0.89035  1.0000
  Ti  Ti65      1.0  0.05146  0.75472  0.42753  1.0000
  Ti  Ti66      1.0  0.45254  0.39480  0.94913  1.0000
  Ti  Ti67      1.0  0.91727  0.51696  0.39742  1.0000
  Ti  Ti68      1.0  0.93025  0.93119  0.35543  1.0000
  Ti  Ti69      1.0  0.58619  0.86875  0.44429  1.0000
  Ti  Ti70      1.0  0.91575  0.47379  0.46945  1.0000
  Ti  Ti71      1.0  0.10226  0.00588  0.39313  1.0000
  Ti  Ti72      1.0  0.26690  0.92688  0.95983  1.0000
  Ti  Ti73      1.0  0.72786  0.37252  0.26871  1.0000
  Ti  Ti74      1.0  0.57451  0.45106  0.29220  1.0000
  Ti  Ti75      1.0  0.43556  0.10011  0.97170  1.0000
  Ti  Ti76      1.0  0.31096  0.06800  0.28585  1.0000
  Ti  Ti77      1.0  0.98159  0.85507  0.74939  1.0000
  Ti  Ti78      1.0  0.27769  0.76193  0.14030  1.0000
  Ti  Ti79      1.0  0.70608  0.10478  0.89082  1.0000
  Ti  Ti80      1.0  0.10259  0.33521  0.21477  1.0000
  Ti  Ti81      1.0  0.38087  0.82419  0.81754  1.0000
  Ti  Ti82      1.0  0.84657  0.32458  0.27449  1.0000
  Ti  Ti83      1.0  0.07717  0.56002  0.51942  1.0000
  Ti  Ti84      1.0  0.72388  0.20727  0.20630  1.0000
  Ti  Ti85      1.0  0.02953  0.96840  0.76517  1.0000
  Ti  Ti86      1.0  0.59067  0.35609  0.10694  1.0000
  Ti  Ti87      1.0  0.18279  0.23845  0.43135  1.0000
  Ti  Ti88      1.0  0.85668  0.51015  0.18177  1.0000
  Ti  Ti89      1.0  0.47101  0.40531  0.18251  1.0000
  Ti  Ti90      1.0  0.96348  0.47579  0.08503  1.0000
  Ti  Ti91      1.0  0.20926  0.70186  0.21142  1.0000
  Ti  Ti92      1.0  0.46539  0.78253  0.25281  1.0000
  Ti  Ti93      1.0  0.93861  0.14062  0.23468  1.0000
  Ti  Ti94      1.0  0.12255  0.02323  0.01528  1.0000
  Ti  Ti95      1.0  0.13251  0.47832  0.89656  1.0000
  Ti  Ti96      1.0  0.02221  0.22552  0.64823  1.0000
  I   I1        1.0  0.28126  0.94547  0.00633  1.0000
  I   I2        1.0  0.27599  0.85563  0.26940  1.0000
  I   I3        1.0  0.71888  0.89744  0.41224  1.0000
  I   I4        1.0  0.88654  0.76230  0.09442  1.0000
  I   I5        1.0  0.39213  0.27793  0.42427  1.0000
  I   I6        1.0  0.68295  0.13119  0.51888  1.0000
  I   I7        1.0  0.24825  0.54547  0.78393  1.0000
  I   I8        1.0  0.06786  0.96356  0.72411  1.0000
  I   I9        1.0  0.34511  0.29484  0.83544  1.0000
  I   I10       1.0  0.65619  0.57525  0.14839  1.0000
  I   I11       1.0  0.16324  0.17676  0.09851  1.0000
  I   I12       1.0  0.50087  0.71689  0.41363  1.0000
  I   I13       1.0  0.82390  0.74841  0.45947  1.0000
  I   I14       1.0  0.14724  0.68143  0.05830  1.0000
  I   I15       1.0  0.80894  0.62606  0.57847  1.0000
  I   I16       1.0  0.64492  0.60537  0.03370  1.0000
  I   I17       1.0  0.47806  0.40707  0.92718  1.0000
  I   I18       1.0  0.22368  0.26269  0.84618  1.0000
  I   I19       1.0  0.29455  0.80638  0.53648  1.0000
  I   I20       1.0  0.17546  0.12487  0.05433  1.0000
  I   I21       1.0  0.25510  0.55890  0.67832  1.0000
  I   I22       1.0  0.18313  0.99516  0.42166  1.0000
  I   I23       1.0  0.11904  0.97303  0.34247  1.0000
  I   I24       1.0  0.88936  0.53937  0.43881  1.0000
  I   I25       1.0  0.62557  0.50223  0.29335  1.0000
  I   I26       1.0  0.46469  0.10774  0.99107  1.0000
  I   I27       1.0  0.72111  0.35349  0.19220  1.0000
  I   I28       1.0  0.33137  0.01058  0.41469  1.0000
  I   I29       1.0  0.26638  0.73861  0.11458  1.0000
  I   I30       1.0  0.39565  0.94962  0.31071  1.0000
  I   I31       1.0  0.11601  0.35455  0.17123  1.0000
  I   I32       1.0  0.36291  0.86763  0.80773  1.0000
  I   I33       1.0  0.71435  0.06748  0.92370  1.0000
  I   I34       1.0  0.10665  0.57737  0.54745  1.0000
  I   I35       1.0  0.74603  0.20434  0.12686  1.0000
  I   I36       1.0  0.72598  0.58075  0.24459  1.0000
  I   I37       1.0  0.96517  0.04415  0.75598  1.0000
  I   I38       1.0  0.75212  0.80637  0.94937  1.0000
  I   I39       1.0  0.01914  0.00376  0.81468  1.0000
  I   I40       1.0  0.68124  0.46057  0.06480  1.0000
  I   I41       1.0  0.98741  0.47924  0.01958  1.0000
  I   I42       1.0  0.59627  0.77130  0.56916  1.0000
  I   I43       1.0  0.38707  0.55764  0.74919  1.0000
  I   I44       1.0  0.66265  0.43167  0.13743  1.0000
  I   I45       1.0  0.14360  0.26223  0.42254  1.0000
  I   I46       1.0  0.11770  0.47452  0.95939  1.0000
  I   I47       1.0  0.24848  0.95337  0.81538  1.0000
  I   I48       1.0  0.06620  0.10846  0.02543  1.0000
  I   I49       1.0  0.78028  0.89708  0.38238  1.0000
  I   I50       1.0  0.37270  0.75975  0.35101  1.0000
  I   I51       1.0  0.37205  0.80914  0.35140  1.0000
  I   I52       1.0  0.13984  0.30764  0.22787  1.0000
  I   I53       1.0  0.83147  0.75520  0.11971  1.0000
  I   I54       1.0  0.73505  0.12653  0.42623  1.0000
  I   I55       1.0  0.58697  0.72829  0.03263  1.0000
  I   I56       1.0  0.19572  0.59031  0.69570  1.0000
  I   I57       1.0  0.10425  0.47828  0.85008  1.0000
  I   I58       1.0  0.62421  0.63995  0.14665  1.0000
  I   I59       1.0  0.46404  0.24633  0.67722  1.0000
  I   I60       1.0  0.88371  0.09870  0.91917  1.0000
  I   I61       1.0  0.73619  0.75272  0.53815  1.0000
  I   I62       1.0  0.70933  0.81325  0.47809  1.0000
  I   I63       1.0  0.13793  0.61985  0.05671  1.0000
  I   I64       1.0  0.25989  0.42675  0.28334  1.0000
  I   I65       1.0  0.01963  0.79134  0.42359  1.0000
  I   I66       1.0  0.47645  0.35535  0.95621  1.0000
  I   I67       1.0  0.04010  0.88424  0.26227  1.0000
  I   I68       1.0  0.30558  0.78001  0.43353  1.0000
  I   I69       1.0  0.56452  0.85180  0.42013  1.0000
  I   I70       1.0  0.87408  0.48181  0.48980  1.0000
  I   I71       1.0  0.07546  0.00098  0.42726  1.0000
  I   I72       1.0  0.24610  0.92407  0.02563  1.0000
  I   I73       1.0  0.76220  0.33801  0.28461  1.0000
  I   I74       1.0  0.58604  0.96351  0.83113  1.0000
  I   I75       1.0  0.54810  0.93598  0.86208  1.0000
  I   I76       1.0  0.95683  0.88447  0.69975  1.0000
  I   I77       1.0  0.01466  0.85546  0.73597  1.0000
  I   I78       1.0  0.67321  0.43074  0.83515  1.0000
  I   I79       1.0  0.36366  0.58255  0.87984  1.0000
  I   I80       1.0  0.33577  0.89465  0.48199  1.0000
  I   I81       1.0  0.39422  0.81981  0.74776  1.0000
  I   I82       1.0  0.83050  0.34594  0.21410  1.0000
  I   I83       1.0  0.10968  0.50783  0.51978  1.0000
  I   I84       1.0  0.73400  0.16950  0.19908  1.0000
  I   I85       1.0  0.95393  0.00404  0.72960  1.0000
  I   I86       1.0  0.43277  0.40676  0.00818  1.0000
  I   I87       1.0  0.74847  0.75002  0.91223  1.0000
  I   I88       1.0  0.59254  0.72421  0.64512  1.0000
  I   I89       1.0  0.71025  0.41579  0.04277  1.0000
  I   I90       1.0  0.96243  0.48183  0.15969  1.0000
  I   I91       1.0  0.24454  0.69776  0.18933  1.0000
  I   I92       1.0  0.49260  0.77555  0.30323  1.0000
  I   I93       1.0  0.66674  0.39695  0.04492  1.0000
  I   I94       1.0  0.12884  0.98763  0.04258  1.0000
  I   I95       1.0  0.35135  0.95973  0.02658  1.0000
  I   I96       1.0  0.00036  0.22550  0.70291  1.0000
  I   I97       1.0  0.30817  0.05065  0.04639  1.0000
  I   I98       1.0  0.61814  0.43704  0.86629  1.0000
  I   I99       1.0  0.27362  0.80668  0.31782  1.0000
  I   I100      1.0  0.04557  0.28386  0.87345  1.0000
  I   I101      1.0  0.87063  0.47285  0.20550  1.0000
  I   I102      1.0  0.54554  0.72107  0.46357  1.0000
  I   I103      1.0  0.57213  0.78739  0.01718  1.0000
  I   I104      1.0  0.60109  0.68600  0.94742  1.0000
  I   I105      1.0  0.41442  0.24414  0.74356  1.0000
  I   I106      1.0  0.85094  0.16128  0.92754  1.0000
  I   I107      1.0  0.68744  0.60581  0.11885  1.0000
  I   I108      1.0  0.84867  0.14057  0.04039  1.0000
  I   I109      1.0  0.79519  0.62510  0.46665  1.0000
  I   I110      1.0  0.73993  0.75433  0.44014  1.0000
  I   I111      1.0  0.18847  0.62069  0.08939  1.0000
  I   I112      1.0  0.22235  0.34071  0.83303  1.0000
  I   I113      1.0  0.08656  0.75177  0.43052  1.0000
  I   I114      1.0  0.03541  0.15286  0.17368  1.0000
  I   I115      1.0  0.91959  0.53827  0.33130  1.0000
  I   I116      1.0  0.92483  0.43826  0.46330  1.0000
  I   I117      1.0  0.92684  0.89689  0.34079  1.0000
  I   I118      1.0  0.03793  0.13208  0.38065  1.0000
  I   I119      1.0  0.92291  0.47673  0.53774  1.0000
  I   I120      1.0  0.29086  0.88639  0.95010  1.0000
  I   I121      1.0  0.73579  0.38542  0.33372  1.0000
  I   I122      1.0  0.62876  0.46387  0.21984  1.0000
  I   I123      1.0  0.44547  0.07127  0.92095  1.0000
  I   I124      1.0  0.34428  0.97816  0.29802  1.0000
  I   I125      1.0  0.29472  0.08303  0.38857  1.0000
  I   I126      1.0  0.31012  0.79640  0.00857  1.0000
  I   I127      1.0  0.35933  0.53974  0.97027  1.0000
  I   I128      1.0  0.11830  0.25343  0.03067  1.0000
  I   I129      1.0  0.37692  0.83249  0.89949  1.0000
  I   I130      1.0  0.83133  0.10331  0.11453  1.0000
  I   I131      1.0  0.87905  0.28388  0.28255  1.0000
  I   I132      1.0  0.12191  0.53834  0.62574  1.0000
  I   I133      1.0  0.77453  0.75058  0.00864  1.0000
  I   I134      1.0  0.62585  0.94205  0.39899  1.0000
  I   I135      1.0  0.43026  0.40454  0.88765  1.0000
  I   I136      1.0  0.99207  0.43780  0.10372  1.0000
  I   I137      1.0  0.82163  0.47344  0.63579  1.0000
  I   I138      1.0  0.50736  0.37952  0.21472  1.0000
  I   I139      1.0  0.17518  0.73115  0.17808  1.0000
  I   I140      1.0  0.43487  0.78626  0.29367  1.0000
  I   I141      1.0  0.97523  0.11903  0.21967  1.0000
  I   I142      1.0  0.09158  0.04388  0.07051  1.0000
  I   I143      1.0  0.31231  0.01427  0.95172  1.0000
  I   I144      1.0  0.03908  0.19009  0.61929  1.0000
  I   I145      1.0  0.67788  0.37995  0.88504  1.0000
  I   I146      1.0  0.32490  0.84685  0.30511  1.0000
  I   I147      1.0  0.25969  0.06385  0.97135  1.0000
  I   I148      1.0  0.87553  0.44654  0.57470  1.0000
  I   I149      1.0  0.50924  0.70987  0.53403  1.0000
  I   I150      1.0  0.38398  0.33877  0.37757  1.0000
  I   I151      1.0  0.61403  0.73618  0.96698  1.0000
  I   I152      1.0  0.22055  0.54805  0.60223  1.0000
  I   I153      1.0  0.30884  0.27707  0.86024  1.0000
  I   I154      1.0  0.88333  0.95526  0.75264  1.0000
  I   I155      1.0  0.22835  0.12905  0.08527  1.0000
  I   I156      1.0  0.89321  0.10301  0.02702  1.0000
  I   I157      1.0  0.75669  0.62631  0.61963  1.0000
  I   I158      1.0  0.17350  0.63452  0.97887  1.0000
  I   I159      1.0  0.73931  0.67143  0.43835  1.0000
  I   I160      1.0  0.16664  0.33957  0.90179  1.0000
  I   I161      1.0  0.05502  0.19160  0.12357  1.0000
  I   I162      1.0  0.26138  0.28178  0.80365  1.0000
  I   I163      1.0  0.98419  0.88120  0.31710  1.0000
  I   I164      1.0  0.94912  0.94228  0.29804  1.0000
  I   I165      1.0  0.22092  0.52023  0.69139  1.0000
  I   I166      1.0  0.00038  0.16675  0.45266  1.0000
  I   I167      1.0  0.15869  0.00776  0.32503  1.0000
  I   I168      1.0  0.79123  0.08750  0.14780  1.0000
  I   I169      1.0  0.56611  0.45554  0.21911  1.0000
  I   I170      1.0  0.59299  0.41152  0.29918  1.0000
  I   I171      1.0  0.70918  0.35574  0.31891  1.0000
  I   I172      1.0  0.27175  0.04003  0.38774  1.0000
  I   I173      1.0  0.29336  0.79103  0.13755  1.0000
  I   I174      1.0  0.35357  0.94439  0.37552  1.0000
  I   I175      1.0  0.36532  0.90741  0.58018  1.0000
  I   I176      1.0  0.41596  0.85093  0.84382  1.0000
  I   I177      1.0  0.67328  0.12632  0.93851  1.0000
  I   I178      1.0  0.83902  0.29693  0.23067  1.0000
  I   I179      1.0  0.07027  0.55176  0.58824  1.0000
  I   I180      1.0  0.68978  0.22804  0.17136  1.0000
  I   I181      1.0  0.02072  0.94986  0.71369  1.0000
  I   I182      1.0  0.59732  0.34746  0.03484  1.0000
  I   I183      1.0  0.12656  0.20378  0.42563  1.0000
  I   I184      1.0  0.86016  0.53217  0.23804  1.0000
  I   I185      1.0  0.45646  0.44138  0.22404  1.0000
  I   I186      1.0  0.98467  0.52636  0.95270  1.0000
  I   I187      1.0  0.45935  0.81316  0.21060  1.0000
  I   I188      1.0  0.63237  0.45582  0.02582  1.0000
  I   I189      1.0  0.13140  0.19994  0.53557  1.0000
  I   I190      1.0  0.40366  0.95461  0.97708  1.0000
  I   I191      1.0  0.99800  0.34262  0.32570  1.0000
  I   I192      1.0  0.14897  0.01250  0.95818  1.0000
  I   I193      1.0  0.35869  0.75039  0.06810  1.0000
  I   I194      1.0  0.94887  0.35442  0.25338  1.0000
  I   I195      1.0  0.27788  0.01012  0.04399  1.0000
  I   I196      1.0  0.13049  0.29555  0.94100  1.0000
  I   I197      1.0  0.34569  0.53682  0.69332  1.0000
  I   I198      1.0  0.39353  0.29229  0.29543  1.0000
  I   I199      1.0  0.56810  0.76666  0.92445  1.0000
  I   I200      1.0  0.13136  0.93263  0.71530  1.0000
  I   I201      1.0  0.36215  0.30529  0.73877  1.0000
  I   I202      1.0  0.47687  0.18494  0.73920  1.0000
  I   I203      1.0  0.58153  0.86933  0.51578  1.0000
  I   I204      1.0  0.91680  0.13819  0.98518  1.0000
  I   I205      1.0  0.78350  0.74545  0.50118  1.0000
  I   I206      1.0  0.08206  0.22004  0.90395  1.0000
  I   I207      1.0  0.77241  0.59361  0.53768  1.0000
  I   I208      1.0  0.30822  0.37843  0.33538  1.0000
  I   I209      1.0  0.09619  0.13750  0.14315  1.0000
  I   I210      1.0  0.68365  0.14431  0.86075  1.0000
  I   I211      1.0  0.94501  0.53157  0.40314  1.0000
  I   I212      1.0  0.27115  0.76623  0.51292  1.0000
  I   I213      1.0  0.57999  0.90865  0.43534  1.0000
  I   I214      1.0  0.06336  0.14439  0.45799  1.0000
  I   I215      1.0  0.17815  0.96082  0.34509  1.0000
  I   I216      1.0  0.76018  0.11719  0.05492  1.0000
  I   I217      1.0  0.59043  0.52065  0.22013  1.0000
  I   I218      1.0  0.40203  0.13056  0.94928  1.0000
  I   I219      1.0  0.71689  0.30566  0.24747  1.0000
  I   I220      1.0  0.98619  0.81659  0.73787  1.0000
  I   I221      1.0  0.29485  0.75903  0.06487  1.0000
  I   I222      1.0  0.34035  0.04833  0.35030  1.0000
  I   I223      1.0  0.29725  0.91467  0.56859  1.0000
  I   I224      1.0  0.38835  0.87491  0.94120  1.0000
  I   I225      1.0  0.35544  0.53397  0.84523  1.0000
  I   I226      1.0  0.86809  0.34096  0.30491  1.0000
  I   I227      1.0  0.15630  0.51453  0.53559  1.0000
  I   I228      1.0  0.75867  0.21391  0.22601  1.0000
  I   I229      1.0  0.07540  0.18609  0.21753  1.0000
  I   I230      1.0  0.62341  0.99713  0.36745  1.0000
  I   I231      1.0  0.80810  0.75830  0.92054  1.0000
  I   I232      1.0  0.09022  0.25073  0.82027  1.0000
  I   I233      1.0  0.75118  0.43211  0.98247  1.0000
  I   I234      1.0  0.92795  0.52783  0.94470  1.0000
  I   I235      1.0  0.81125  0.98574  0.71818  1.0000
  I   I236      1.0  0.93103  0.17644  0.26080  1.0000
  I   I237      1.0  0.20824  0.70598  0.28706  1.0000
  I   I238      1.0  0.12356  0.51989  0.88934  1.0000
  I   I239      1.0  0.00704  0.25431  0.59349  1.0000
  I   I240      1.0  0.04589  0.08482  0.10531  1.0000
  I   I241      1.0  0.66367  0.38978  0.77016  1.0000
  I   I242      1.0  0.37520  0.78329  0.25600  1.0000
  I   I243      1.0  0.36272  0.01475  0.97119  1.0000
  I   I244      1.0  0.81796  0.52099  0.17938  1.0000
  I   I245      1.0  0.84831  0.81198  0.13991  1.0000
  I   I246      1.0  0.33808  0.32061  0.35942  1.0000
  I   I247      1.0  0.53513  0.76547  0.08947  1.0000
  I   I248      1.0  0.19277  0.54892  0.75361  1.0000
  I   I249      1.0  0.35935  0.24582  0.75589  1.0000
  I   I250      1.0  0.50483  0.21750  0.75294  1.0000
  I   I251      1.0  0.21516  0.14050  0.99238  1.0000
  I   I252      1.0  0.82938  0.12092  0.95869  1.0000
  I   I253      1.0  0.81097  0.80072  0.51094  1.0000
  I   I254      1.0  0.12509  0.23248  0.90494  1.0000
  I   I255      1.0  0.75924  0.66982  0.52334  1.0000
  I   I256      1.0  0.04567  0.73419  0.37541  1.0000
  I   I257      1.0  0.04590  0.95135  0.82985  1.0000
  I   I258      1.0  0.22064  0.33799  0.94986  1.0000
  I   I259      1.0  0.94630  0.48561  0.44697  1.0000
  I   I260      1.0  0.95254  0.94004  0.39629  1.0000
  I   I261      1.0  0.17523  0.58637  0.59602  1.0000
  I   I262      1.0  0.02894  0.19974  0.41836  1.0000
  I   I263      1.0  0.11717  0.03646  0.39871  1.0000
  I   I264      1.0  0.77197  0.14677  0.11637  1.0000
  I   I265      1.0  0.56245  0.49513  0.29512  1.0000
  I   I266      1.0  0.60504  0.91036  0.76653  1.0000
  I   I267      1.0  0.73878  0.39871  0.22842  1.0000
  I   I268      1.0  0.29997  0.03642  0.30097  1.0000
  I   I269      1.0  0.30260  0.73165  0.18129  1.0000
  I   I270      1.0  0.32547  0.09274  0.28873  1.0000
  I   I271      1.0  0.34430  0.86808  0.58653  1.0000
  I   I272      1.0  0.41932  0.78349  0.83360  1.0000
  I   I273      1.0  0.41103  0.51889  0.88499  1.0000
  I   I274      1.0  0.77381  0.54349  0.29868  1.0000
  I   I275      1.0  0.10896  0.56205  0.47038  1.0000
  I   I276      1.0  0.71361  0.20906  0.28011  1.0000
  I   I277      1.0  0.81303  0.32828  0.30683  1.0000
  I   I278      1.0  0.56846  0.98440  0.40410  1.0000
  I   I279      1.0  0.18362  0.16273  0.47072  1.0000
  I   I280      1.0  0.82300  0.46223  0.53165  1.0000
  I   I281      1.0  0.73242  0.47493  0.04409  1.0000
  I   I282      1.0  0.94156  0.51803  0.03964  1.0000
  I   I283      1.0  0.85860  0.97691  0.65729  1.0000
  I   I284      1.0  0.90415  0.14257  0.20868  1.0000
  I   I285      1.0  0.18843  0.20441  0.41163  1.0000
  I   I286      1.0  0.15372  0.43566  0.90270  1.0000
  I   I287      1.0  0.24040  0.95991  0.92238  1.0000
  I   I288      1.0  0.02447  0.08907  0.99801  1.0000
  I   I289      1.0  0.72665  0.92893  0.31825  1.0000
  I   I290      1.0  0.00940  0.32779  0.21289  1.0000
  I   I291      1.0  0.32344  0.79992  0.25477  1.0000
  I   I292      1.0  0.84745  0.51403  0.58222  1.0000
  I   I293      1.0  0.83878  0.79669  0.03833  1.0000
  I   I294      1.0  0.73902  0.07915  0.48947  1.0000
  I   I295      1.0  0.51742  0.80626  0.02478  1.0000
  I   I296      1.0  0.09853  0.92068  0.62853  1.0000
  I   I297      1.0  0.39170  0.24758  0.83978  1.0000
  I   I298      1.0  0.39870  0.52828  0.63763  1.0000
  I   I299      1.0  0.25929  0.43734  0.39639  1.0000
  I   I300      1.0  0.93903  0.12940  0.31198  1.0000
  I   I301      1.0  0.73739  0.61797  0.44933  1.0000
  I   I302      1.0  0.77909  0.79654  0.41386  1.0000
  I   I303      1.0  0.64735  0.70730  0.56691  1.0000
  I   I304      1.0  0.19172  0.31188  0.79924  1.0000
  I   I305      1.0  0.25446  0.38079  0.37205  1.0000
  I   I306      1.0  0.55734  0.39298  0.10835  1.0000
  I   I307      1.0  0.02957  0.83702  0.22625  1.0000
  I   I308      1.0  0.33750  0.75246  0.54098  1.0000
  I   I309      1.0  0.16074  0.55613  0.67028  1.0000
  I   I310      1.0  0.85459  0.92793  0.70586  1.0000
  I   I311      1.0  0.13089  0.98529  0.44913  1.0000
  I   I312      1.0  0.29238  0.93976  0.89956  1.0000
  I   I313      1.0  0.68436  0.39351  0.26237  1.0000
  I   I314      1.0  0.60956  0.45336  0.30717  1.0000
  I   I315      1.0  0.43071  0.07419  0.01510  1.0000
  I   I316      1.0  0.26952  0.09232  0.28449  1.0000
  I   I317      1.0  0.32653  0.05076  0.22264  1.0000
  I   I318      1.0  0.25128  0.77971  0.19811  1.0000
  I   I319      1.0  0.72139  0.09115  0.82003  1.0000
  I   I320      1.0  0.16593  0.23724  0.97813  1.0000
  I   I321      1.0  0.36337  0.91106  0.86323  1.0000
  I   I322      1.0  0.72112  0.53762  0.31154  1.0000
  I   I323      1.0  0.07100  0.54788  0.45337  1.0000
  I   I324      1.0  0.80952  0.16948  0.15088  1.0000
  I   I325      1.0  0.01109  0.99712  0.70337  1.0000
  I   I326      1.0  0.57453  0.33495  0.14699  1.0000
  I   I327      1.0  0.18944  0.25099  0.36889  1.0000
  I   I328      1.0  0.63360  0.74953  0.65103  1.0000
  I   I329      1.0  0.44833  0.38763  0.17558  1.0000
  I   I330      1.0  0.93562  0.47066  0.05458  1.0000
  I   I331      1.0  0.21608  0.23601  0.46636  1.0000
  I   I332      1.0  0.35637  0.58780  0.65621  1.0000
  I   I333      1.0  0.74862  0.41466  0.09929  1.0000
  I   I334      1.0  0.08905  0.05887  0.97546  1.0000
  I   I335      1.0  0.38090  0.98720  0.08090  1.0000
  I   I336      1.0  0.05319  0.22759  0.67925  1.0000
  I   I337      1.0  0.76188  0.86713  0.31392  1.0000
  I   I338      1.0  0.99684  0.28954  0.28361  1.0000
  I   I339      1.0  0.32134  0.80676  0.37005  1.0000
  I   I340      1.0  0.09170  0.35533  0.27601  1.0000
  I   I341      1.0  0.48498  0.77150  0.46942  1.0000
  I   I342      1.0  0.74015  0.11649  0.55356  1.0000
  I   I343      1.0  0.54466  0.73794  0.97292  1.0000
  I   I344      1.0  0.11069  0.96925  0.61966  1.0000
  I   I345      1.0  0.35252  0.22793  0.87742  1.0000
  I   I346      1.0  0.90128  0.48705  0.39166  1.0000
  I   I347      1.0  0.45527  0.22554  0.81199  1.0000
  I   I348      1.0  0.86141  0.18048  0.00289  1.0000
  I   I349      1.0  0.71770  0.65650  0.53046  1.0000
  I   I350      1.0  0.75603  0.81220  0.51157  1.0000
  I   I351      1.0  0.08543  0.28278  0.94446  1.0000
  I   I352      1.0  0.23139  0.29355  0.91372  1.0000
  I   I353      1.0  0.04027  0.73423  0.47242  1.0000
  I   I354      1.0  0.61977  0.36597  0.11758  1.0000
  I   I355      1.0  0.04941  0.83144  0.32525  1.0000
  I   I356      1.0  0.89000  0.95428  0.36603  1.0000
  I   I357      1.0  0.55160  0.95695  0.75337  1.0000
  I   I358      1.0  0.82172  0.07718  0.04003  1.0000
  I   I359      1.0  0.07651  0.04374  0.35366  1.0000
  I   I360      1.0  0.28557  0.89262  0.82911  1.0000
  I   I361      1.0  0.66128  0.35383  0.25752  1.0000
  I   I362      1.0  0.53542  0.46415  0.31097  1.0000
  I   I363      1.0  0.61374  0.85637  0.39542  1.0000
  I   I364      1.0  0.39095  0.96740  0.41350  1.0000
  I   I365      1.0  0.97650  0.87109  0.81745  1.0000
  I   I366      1.0  0.33088  0.80758  0.09579  1.0000
  I   I367      1.0  0.72937  0.11939  0.90991  1.0000
  I   I368      1.0  0.07731  0.31884  0.19914  1.0000
  I   I369      1.0  0.36909  0.79563  0.83641  1.0000
  I   I370      1.0  0.72503  0.59155  0.36442  1.0000
  I   I371      1.0  0.03658  0.59170  0.50229  1.0000
  I   I372      1.0  0.78448  0.15425  0.23688  1.0000
  I   I373      1.0  0.98893  0.97358  0.79872  1.0000
  I   I374      1.0  0.59553  0.96680  0.29637  1.0000
  I   I375      1.0  0.17048  0.22064  0.51428  1.0000
  I   I376      1.0  0.87597  0.50228  0.11429  1.0000
  I   I377      1.0  0.47948  0.41358  0.11251  1.0000
  I   I378      1.0  0.98105  0.47412  0.92234  1.0000
  I   I379      1.0  0.21291  0.66475  0.21807  1.0000
  I   I380      1.0  0.48574  0.74373  0.22294  1.0000
  I   I381      1.0  0.89354  0.14703  0.10091  1.0000
  I   I382      1.0  0.15578  0.01237  0.06074  1.0000
  I   I383      1.0  0.16489  0.48483  0.92288  1.0000
  I   I384      1.0  0.23513  0.92361  0.90399  1.0000
