data_image0
_chemical_formula_structural       Ti96I384
_chemical_formula_sum              "Ti96 I384"
_cell_length_a       67.2123
_cell_length_b       67.2019
_cell_length_c       32.8812
_cell_angle_alpha    88.7757
_cell_angle_beta     88.7757
_cell_angle_gamma    62.1586

_space_group_name_H-M_alt    "P 1"
_space_group_IT_number       1

loop_
  _space_group_symop_operation_xyz
  'x, y, z'

loop_
  _atom_site_type_symbol
  _atom_site_label
  _atom_site_symmetry_multiplicity
  _atom_site_fract_x
  _atom_site_fract_y
  _atom_site_fract_z
  _atom_site_occupancy
  Ti  Ti1       1.0  0.08453  0.79013  0.05117  1.0000
  Ti  Ti2       1.0  0.60425  0.99766  0.97697  1.0000
  Ti  Ti3       1.0  0.65234  0.91120  0.37316  1.0000
  Ti  Ti4       1.0  0.91111  0.13382  0.18875  1.0000
  Ti  Ti5       1.0  0.67182  0.77848  0.32728  1.0000
  Ti  Ti6       1.0  0.00067  0.63835  0.87687  1.0000
  Ti  Ti7       1.0  0.81644  0.30522  0.52569  1.0000
  Ti  Ti8       1.0  0.27173  0.04298  0.38620  1.0000
  Ti  Ti9       1.0  0.27038  0.86603  0.15797  1.0000
  Ti  Ti10      1.0  0.85758  0.90230  0.28190  1.0000
  Ti  Ti11      1.0  0.11485  0.16039  0.43840  1.0000
  Ti  Ti12      1.0  0.14397  0.60129  0.54444  1.0000
  Ti  Ti13      1.0  0.15702  0.07491  0.10218  1.0000
  Ti  Ti14      1.0  0.99580  0.07957  0.49395  1.0000
  Ti  Ti15      1.0  0.70968  0.02907  0.57294  1.0000
  Ti  Ti16      1.0  0.82769  0.91068  0.39352  1.0000
  Ti  Ti17      1.0  0.29315  0.02630  0.76168  1.0000
  Ti  Ti18      1.0  0.87842  0.71681  0.06772  1.0000
  Ti  Ti19      1.0  0.57669  0.43672  0.94253  1.0000
  Ti  Ti20      1.0  0.17018  0.00229  0.68635  1.0000
  Ti  Ti21      1.0  0.23175  0.03820  0.46313  1.0000
  Ti  Ti22      1.0  0.78092  0.78915  0.51616  1.0000
  Ti  Ti23      1.0  0.52346  0.01201  0.67572  1.0000
  Ti  Ti24      1.0  0.35208  0.72826  0.81350  1.0000
  Ti  Ti25      1.0  0.56116  0.85488  0.72349  1.0000
  Ti  Ti26      1.0  0.32818  0.86273  0.35066  1.0000
  Ti  Ti27      1.0  0.80512  0.09747  0.59452  1.0000
  Ti  Ti28      1.0  0.62535  0.54975  0.59545  1.0000
  Ti  Ti29      1.0  0.98626  0.88166  0.03874  1.0000
  Ti  Ti30      1.0  0.47515  0.06225  0.05858  1.0000
  Ti  Ti31      1.0  0.11244  0.71816  0.85333  1.0000
  Ti  Ti32      1.0  0.84612  0.32233  0.08355  1.0000
  Ti  Ti33      1.0  0.11291  0.86442  0.34018  1.0000
  Ti  Ti34      1.0  0.40331  0.44521  0.80826  1.0000
  Ti  Ti35      1.0  0.62572  0.64571  0.86128  1.0000
  Ti  Ti36      1.0  0.80443  0.07072  0.91016  1.0000
  Ti  Ti37      1.0  0.16011  0.45056  0.40245  1.0000
  Ti  Ti38      1.0  0.51518  0.33980  0.03288  1.0000
  Ti  Ti39      1.0  0.91533  0.58649  0.20609  1.0000
  Ti  Ti40      1.0  0.26295  0.41352  0.97403  1.0000
  Ti  Ti41      1.0  0.49181  0.65772  0.67113  1.0000
  Ti  Ti42      1.0  0.96740  0.36393  0.32982  1.0000
  Ti  Ti43      1.0  0.55518  0.14611  0.35856  1.0000
  Ti  Ti44      1.0  0.86748  0.50666  0.64639  1.0000
  Ti  Ti45      1.0  0.36020  0.63387  0.65500  1.0000
  Ti  Ti46      1.0  0.56166  0.42753  0.36416  1.0000
  Ti  Ti47      1.0  0.24393  0.50314  0.19323  1.0000
  Ti  Ti48      1.0  0.64723  0.22417  0.84885  1.0000
  Ti  Ti49      1.0  0.86459  0.52763  0.33784  1.0000
  Ti  Ti50      1.0  0.00061  0.30730  0.78572  1.0000
  Ti  Ti51      1.0  0.61901  0.02773  0.90295  1.0000
  Ti  Ti52      1.0  0.88215  0.12904  0.31021  1.0000
  Ti  Ti53      1.0  0.43214  0.67947  0.06810  1.0000
  Ti  Ti54      1.0  0.99175  0.57948  0.92232  1.0000
  Ti  Ti55      1.0  0.82753  0.28620  0.41287  1.0000
  Ti  Ti56      1.0  0.20194  0.45583  0.77274  1.0000
  Ti  Ti57      1.0  0.30150  0.91230  0.07994  1.0000
  Ti  Ti58      1.0  0.57946  0.19412  0.37437  1.0000
  Ti  Ti59      1.0  0.21131  0.31279  0.06543  1.0000
  Ti  Ti60      1.0  0.22094  0.55984  0.57502  1.0000
  Ti  Ti61      1.0  0.68135  0.00581  0.61339  1.0000
  Ti  Ti62      1.0  0.12691  0.04702  0.14631  1.0000
  Ti  Ti63      1.0  0.96797  0.14591  0.52748  1.0000
  Ti  Ti64      1.0  0.90998  0.72323  0.12197  1.0000
  Ti  Ti65      1.0  0.80469  0.74291  0.73474  1.0000
  Ti  Ti66      1.0  0.54721  0.23408  0.03512  1.0000
  Ti  Ti67      1.0  0.59293  0.45787  0.05344  1.0000
  Ti  Ti68      1.0  0.94179  0.49910  0.98943  1.0000
  Ti  Ti69      1.0  0.47328  0.76960  0.85225  1.0000
  Ti  Ti70      1.0  0.61145  0.75077  0.51925  1.0000
  Ti  Ti71      1.0  0.49245  0.04309  0.58443  1.0000
  Ti  Ti72      1.0  0.98483  0.18391  0.16168  1.0000
  Ti  Ti73      1.0  0.81690  0.15522  0.64649  1.0000
  Ti  Ti74      1.0  0.62446  0.84065  0.72854  1.0000
  Ti  Ti75      1.0  0.36122  0.81279  0.40179  1.0000
  Ti  Ti76      1.0  0.44933  0.02249  0.07924  1.0000
  Ti  Ti77      1.0  0.66439  0.48930  0.60661  1.0000
  Ti  Ti78      1.0  0.94210  0.87518  0.05150  1.0000
  Ti  Ti79      1.0  0.68979  0.30478  0.70667  1.0000
  Ti  Ti80      1.0  0.74853  0.29651  0.25411  1.0000
  Ti  Ti81      1.0  0.90299  0.32861  0.02799  1.0000
  Ti  Ti82      1.0  0.35839  0.43983  0.72243  1.0000
  Ti  Ti83      1.0  0.65080  0.65844  0.93079  1.0000
  Ti  Ti84      1.0  0.80521  0.99695  0.92254  1.0000
  Ti  Ti85      1.0  0.19556  0.39057  0.43978  1.0000
  Ti  Ti86      1.0  0.56868  0.27475  0.08139  1.0000
  Ti  Ti87      1.0  0.84931  0.63028  0.15168  1.0000
  Ti  Ti88      1.0  0.54109  0.56412  0.29342  1.0000
  Ti  Ti89      1.0  0.48482  0.64360  0.56549  1.0000
  Ti  Ti90      1.0  0.93697  0.36493  0.25264  1.0000
  Ti  Ti91      1.0  0.30476  0.62686  0.73366  1.0000
  Ti  Ti92      1.0  0.24377  0.56665  0.85818  1.0000
  Ti  Ti93      1.0  0.89742  0.45920  0.70576  1.0000
  Ti  Ti94      1.0  0.67686  0.22709  0.92490  1.0000
  Ti  Ti95      1.0  0.59263  0.35541  0.33128  1.0000
  Ti  Ti96      1.0  0.29339  0.50054  0.17451  1.0000
  I   I1        1.0  0.26344  0.49979  0.11294  1.0000
  I   I2        1.0  0.58525  0.01337  0.90011  1.0000
  I   I3        1.0  0.87552  0.53882  0.26842  1.0000
  I   I4        1.0  0.39012  0.69997  0.07478  1.0000
  I   I5        1.0  0.02731  0.59356  0.91237  1.0000
  I   I6        1.0  0.98211  0.59885  0.99483  1.0000
  I   I7        1.0  0.22888  0.04959  0.37354  1.0000
  I   I8        1.0  0.16629  0.49785  0.75119  1.0000
  I   I9        1.0  0.30154  0.88947  0.15717  1.0000
  I   I10       1.0  0.85639  0.90355  0.45267  1.0000
  I   I11       1.0  0.11483  0.15300  0.35967  1.0000
  I   I12       1.0  0.66642  0.81978  0.34363  1.0000
  I   I13       1.0  0.12290  0.10771  0.14572  1.0000
  I   I14       1.0  0.98979  0.10714  0.56866  1.0000
  I   I15       1.0  0.74729  0.02854  0.60319  1.0000
  I   I16       1.0  0.79083  0.92597  0.35311  1.0000
  I   I17       1.0  0.50654  0.26414  0.03709  1.0000
  I   I18       1.0  0.87675  0.76480  0.13757  1.0000
  I   I19       1.0  0.13494  0.02147  0.63835  1.0000
  I   I20       1.0  0.08026  0.16375  0.47680  1.0000
  I   I21       1.0  0.19487  0.06605  0.50057  1.0000
  I   I22       1.0  0.55748  0.01360  0.70059  1.0000
  I   I23       1.0  0.50259  0.05649  0.65653  1.0000
  I   I24       1.0  0.63616  0.70718  0.53435  1.0000
  I   I25       1.0  0.65248  0.80690  0.68738  1.0000
  I   I26       1.0  0.32476  0.82453  0.45651  1.0000
  I   I27       1.0  0.83853  0.10084  0.63445  1.0000
  I   I28       1.0  0.64613  0.47405  0.66456  1.0000
  I   I29       1.0  0.96093  0.89170  0.11395  1.0000
  I   I30       1.0  0.49943  0.07868  0.09378  1.0000
  I   I31       1.0  0.73352  0.28849  0.32272  1.0000
  I   I32       1.0  0.94307  0.29228  0.03745  1.0000
  I   I33       1.0  0.72992  0.29854  0.71729  1.0000
  I   I34       1.0  0.63756  0.62719  0.94471  1.0000
  I   I35       1.0  0.82041  0.07059  0.98475  1.0000
  I   I36       1.0  0.39249  0.48169  0.85072  1.0000
  I   I37       1.0  0.18631  0.36813  0.49146  1.0000
  I   I38       1.0  0.83170  0.61601  0.20115  1.0000
  I   I39       1.0  0.19227  0.43106  0.46947  1.0000
  I   I40       1.0  0.52407  0.63698  0.60975  1.0000
  I   I41       1.0  0.91393  0.39861  0.19533  1.0000
  I   I42       1.0  0.27464  0.44810  0.97763  1.0000
  I   I43       1.0  0.59190  0.20289  0.44150  1.0000
  I   I44       1.0  0.86135  0.47263  0.61570  1.0000
  I   I45       1.0  0.33694  0.64566  0.72787  1.0000
  I   I46       1.0  0.63306  0.32520  0.36007  1.0000
  I   I47       1.0  0.23215  0.51451  0.26583  1.0000
  I   I48       1.0  0.60759  0.24737  0.81485  1.0000
  I   I49       1.0  0.84237  0.50527  0.32249  1.0000
  I   I50       1.0  0.56684  0.98898  0.98935  1.0000
  I   I51       1.0  0.59162  0.04362  0.00031  1.0000
  I   I52       1.0  0.91367  0.17090  0.17962  1.0000
  I   I53       1.0  0.45004  0.70620  0.07388  1.0000
  I   I54       1.0  0.02084  0.53642  0.92736  1.0000
  I   I55       1.0  0.80569  0.34277  0.56265  1.0000
  I   I56       1.0  0.29380  0.02627  0.31782  1.0000
  I   I57       1.0  0.22789  0.89249  0.15375  1.0000
  I   I58       1.0  0.84043  0.93123  0.21790  1.0000
  I   I59       1.0  0.22655  0.34037  0.04375  1.0000
  I   I60       1.0  0.18459  0.57925  0.50279  1.0000
  I   I61       1.0  0.08387  0.06138  0.13709  1.0000
  I   I62       1.0  0.16656  0.07342  0.02152  1.0000
  I   I63       1.0  0.98552  0.06790  0.42856  1.0000
  I   I64       1.0  0.84533  0.87641  0.33148  1.0000
  I   I65       1.0  0.82610  0.70456  0.69453  1.0000
  I   I66       1.0  0.54255  0.20351  0.07968  1.0000
  I   I67       1.0  0.54690  0.47432  0.90486  1.0000
  I   I68       1.0  0.16304  0.00425  0.76488  1.0000
  I   I69       1.0  0.44159  0.78161  0.90671  1.0000
  I   I70       1.0  0.59739  0.75610  0.60226  1.0000
  I   I71       1.0  0.54794  0.96696  0.68042  1.0000
  I   I72       1.0  0.94833  0.20301  0.12444  1.0000
  I   I73       1.0  0.85876  0.14741  0.61949  1.0000
  I   I74       1.0  0.28804  0.89161  0.35868  1.0000
  I   I75       1.0  0.34307  0.86221  0.43533  1.0000
  I   I76       1.0  0.58553  0.54610  0.62019  1.0000
  I   I77       1.0  0.67700  0.45772  0.54987  1.0000
  I   I78       1.0  0.90642  0.91590  0.05074  1.0000
  I   I79       1.0  0.08774  0.90573  0.30257  1.0000
  I   I80       1.0  0.11075  0.68296  0.87804  1.0000
  I   I81       1.0  0.90216  0.34175  0.94882  1.0000
  I   I82       1.0  0.34606  0.42601  0.65006  1.0000
  I   I83       1.0  0.61061  0.67343  0.80011  1.0000
  I   I84       1.0  0.82427  0.96866  0.98469  1.0000
  I   I85       1.0  0.15093  0.42040  0.44697  1.0000
  I   I86       1.0  0.55009  0.29404  0.00316  1.0000
  I   I87       1.0  0.94663  0.59652  0.18716  1.0000
  I   I88       1.0  0.23597  0.40473  0.92855  1.0000
  I   I89       1.0  0.49286  0.60387  0.59274  1.0000
  I   I90       1.0  0.89859  0.36632  0.24532  1.0000
  I   I91       1.0  0.32861  0.58484  0.74403  1.0000
  I   I92       1.0  0.24576  0.59699  0.81503  1.0000
  I   I93       1.0  0.82106  0.52612  0.63957  1.0000
  I   I94       1.0  0.68001  0.24051  0.84675  1.0000
  I   I95       1.0  0.57047  0.44700  0.30142  1.0000
  I   I96       1.0  0.32680  0.46657  0.13936  1.0000
  I   I97       1.0  0.68000  0.91098  0.41919  1.0000
  I   I98       1.0  0.10051  0.75815  0.10219  1.0000
  I   I99       1.0  0.63467  0.96454  0.92508  1.0000
  I   I100      1.0  0.91521  0.13975  0.28090  1.0000
  I   I101      1.0  0.84616  0.17247  0.28669  1.0000
  I   I102      1.0  0.63212  0.78388  0.32837  1.0000
  I   I103      1.0  0.85220  0.29190  0.36049  1.0000
  I   I104      1.0  0.81040  0.29005  0.59653  1.0000
  I   I105      1.0  0.33103  0.88344  0.03883  1.0000
  I   I106      1.0  0.10836  0.59952  0.51512  1.0000
  I   I107      1.0  0.90535  0.88158  0.27780  1.0000
  I   I108      1.0  0.11979  0.63634  0.60249  1.0000
  I   I109      1.0  0.71734  0.04259  0.49907  1.0000
  I   I110      1.0  0.11826  0.07002  0.07530  1.0000
  I   I111      1.0  0.93002  0.14707  0.52773  1.0000
  I   I112      1.0  0.89726  0.73997  0.03147  1.0000
  I   I113      1.0  0.81059  0.77508  0.70696  1.0000
  I   I114      1.0  0.28731  0.03196  0.84354  1.0000
  I   I115      1.0  0.60959  0.44374  0.96493  1.0000
  I   I116      1.0  0.55072  0.41677  0.95901  1.0000
  I   I117      1.0  0.96507  0.49910  0.05534  1.0000
  I   I118      1.0  0.77721  0.78194  0.59488  1.0000
  I   I119      1.0  0.60441  0.79130  0.53350  1.0000
  I   I120      1.0  0.01125  0.14341  0.13094  1.0000
  I   I121      1.0  0.79450  0.20002  0.62719  1.0000
  I   I122      1.0  0.54038  0.89181  0.68299  1.0000
  I   I123      1.0  0.37784  0.82845  0.33802  1.0000
  I   I124      1.0  0.48646  0.03365  0.12455  1.0000
  I   I125      1.0  0.62507  0.58723  0.61137  1.0000
  I   I126      1.0  0.95712  0.85197  0.98205  1.0000
  I   I127      1.0  0.14415  0.86000  0.28920  1.0000
  I   I128      1.0  0.77689  0.31150  0.26130  1.0000
  I   I129      1.0  0.89015  0.29592  0.05210  1.0000
  I   I130      1.0  0.77398  0.08443  0.84533  1.0000
  I   I131      1.0  0.36375  0.47855  0.75451  1.0000
  I   I132      1.0  0.66851  0.64049  0.84948  1.0000
  I   I133      1.0  0.92213  0.56658  0.27680  1.0000
  I   I134      1.0  0.47981  0.37921  0.05072  1.0000
  I   I135      1.0  0.59815  0.28894  0.05648  1.0000
  I   I136      1.0  0.97104  0.39816  0.36529  1.0000
  I   I137      1.0  0.52348  0.58493  0.36084  1.0000
  I   I138      1.0  0.49983  0.68450  0.71274  1.0000
  I   I139      1.0  0.38549  0.59130  0.67213  1.0000
  I   I140      1.0  0.26517  0.52606  0.82202  1.0000
  I   I141      1.0  0.91989  0.47029  0.63191  1.0000
  I   I142      1.0  0.70594  0.23752  0.94909  1.0000
  I   I143      1.0  0.57366  0.34344  0.38691  1.0000
  I   I144      1.0  0.28101  0.45993  0.20476  1.0000
  I   I145      1.0  0.11846  0.77024  0.99928  1.0000
  I   I146      1.0  0.62870  0.96154  0.02193  1.0000
  I   I147      1.0  0.63748  0.94986  0.33765  1.0000
  I   I148      1.0  0.89125  0.11588  0.23538  1.0000
  I   I149      1.0  0.68940  0.75673  0.39939  1.0000
  I   I150      1.0  0.01664  0.63256  0.79615  1.0000
  I   I151      1.0  0.79168  0.30970  0.37301  1.0000
  I   I152      1.0  0.28314  0.07850  0.36800  1.0000
  I   I153      1.0  0.31544  0.93584  0.12181  1.0000
  I   I154      1.0  0.54777  0.14949  0.44425  1.0000
  I   I155      1.0  0.14298  0.11957  0.46368  1.0000
  I   I156      1.0  0.23499  0.54710  0.64856  1.0000
  I   I157      1.0  0.70082  0.03060  0.65322  1.0000
  I   I158      1.0  0.96357  0.17036  0.59430  1.0000
  I   I159      1.0  0.69488  0.97524  0.67091  1.0000
  I   I160      1.0  0.92814  0.68314  0.07272  1.0000
  I   I161      1.0  0.33977  0.00375  0.75078  1.0000
  I   I162      1.0  0.92115  0.69655  0.18589  1.0000
  I   I163      1.0  0.58060  0.42806  0.02871  1.0000
  I   I164      1.0  0.90947  0.53824  0.97828  1.0000
  I   I165      1.0  0.22263  0.01110  0.41899  1.0000
  I   I166      1.0  0.74468  0.82786  0.53092  1.0000
  I   I167      1.0  0.47504  0.02105  0.63630  1.0000
  I   I168      1.0  0.34050  0.69622  0.82865  1.0000
  I   I169      1.0  0.60356  0.81588  0.75399  1.0000
  I   I170      1.0  0.58147  0.84189  0.64623  1.0000
  I   I171      1.0  0.76979  0.11353  0.54700  1.0000
  I   I172      1.0  0.47395  0.97665  0.07382  1.0000
  I   I173      1.0  0.03004  0.86093  0.03928  1.0000
  I   I174      1.0  0.43360  0.08470  0.08647  1.0000
  I   I175      1.0  0.14821  0.71445  0.89040  1.0000
  I   I176      1.0  0.80511  0.33310  0.05469  1.0000
  I   I177      1.0  0.69071  0.29482  0.62945  1.0000
  I   I178      1.0  0.35390  0.41999  0.79178  1.0000
  I   I179      1.0  0.62142  0.68382  0.00159  1.0000
  I   I180      1.0  0.83375  0.96176  0.88001  1.0000
  I   I181      1.0  0.23687  0.35601  0.41838  1.0000
  I   I182      1.0  0.58844  0.23351  0.04546  1.0000
  I   I183      1.0  0.83048  0.67342  0.16314  1.0000
  I   I184      1.0  0.51590  0.59271  0.24136  1.0000
  I   I185      1.0  0.45660  0.66032  0.70540  1.0000
  I   I186      1.0  0.92304  0.39140  0.32134  1.0000
  I   I187      1.0  0.25095  0.56760  0.93463  1.0000
  I   I188      1.0  0.87867  0.53334  0.61131  1.0000
  I   I189      1.0  0.31542  0.62780  0.64916  1.0000
  I   I190      1.0  0.59249  0.34146  0.25973  1.0000
  I   I191      1.0  0.00759  0.33874  0.81406  1.0000
  I   I192      1.0  0.62555  0.19853  0.86654  1.0000
  I   I193      1.0  0.09029  0.81992  0.09392  1.0000
  I   I194      1.0  0.96170  0.31751  0.83491  1.0000
  I   I195      1.0  0.63035  0.88910  0.40040  1.0000
  I   I196      1.0  0.94521  0.09971  0.17336  1.0000
  I   I197      1.0  0.61298  0.15857  0.34777  1.0000
  I   I198      1.0  0.95926  0.66380  0.88371  1.0000
  I   I199      1.0  0.81111  0.27421  0.48298  1.0000
  I   I200      1.0  0.19087  0.43808  0.83083  1.0000
  I   I201      1.0  0.27952  0.83498  0.21199  1.0000
  I   I202      1.0  0.20857  0.30507  0.14168  1.0000
  I   I203      1.0  0.47723  0.73321  0.82379  1.0000
  I   I204      1.0  0.17037  0.57753  0.60736  1.0000
  I   I205      1.0  0.17546  0.03203  0.13288  1.0000
  I   I206      1.0  0.99303  0.16486  0.49622  1.0000
  I   I207      1.0  0.63919  0.02137  0.61780  1.0000
  I   I208      1.0  0.81145  0.95262  0.43121  1.0000
  I   I209      1.0  0.27709  0.05914  0.71627  1.0000
  I   I210      1.0  0.88125  0.68609  0.02418  1.0000
  I   I211      1.0  0.58322  0.49427  0.01433  1.0000
  I   I212      1.0  0.19578  0.02145  0.67927  1.0000
  I   I213      1.0  0.45452  0.80836  0.81045  1.0000
  I   I214      1.0  0.82163  0.78004  0.50860  1.0000
  I   I215      1.0  0.50122  0.07509  0.55384  1.0000
  I   I216      1.0  0.38075  0.70957  0.75322  1.0000
  I   I217      1.0  0.58195  0.87100  0.78370  1.0000
  I   I218      1.0  0.36737  0.77165  0.37719  1.0000
  I   I219      1.0  0.82211  0.08149  0.52500  1.0000
  I   I220      1.0  0.61093  0.57270  0.52069  1.0000
  I   I221      1.0  0.98020  0.92473  0.04073  1.0000
  I   I222      1.0  0.46206  0.02861  0.00759  1.0000
  I   I223      1.0  0.10858  0.71962  0.77206  1.0000
  I   I224      1.0  0.84386  0.28564  0.11132  1.0000
  I   I225      1.0  0.13689  0.85814  0.40213  1.0000
  I   I226      1.0  0.31960  0.47520  0.71207  1.0000
  I   I227      1.0  0.68206  0.64804  0.98668  1.0000
  I   I228      1.0  0.83101  0.08178  0.87433  1.0000
  I   I229      1.0  0.18385  0.46867  0.36294  1.0000
  I   I230      1.0  0.52451  0.35567  0.96616  1.0000
  I   I231      1.0  0.82881  0.62825  0.09011  1.0000
  I   I232      1.0  0.98548  0.05353  0.53996  1.0000
  I   I233      1.0  0.51072  0.61810  0.72037  1.0000
  I   I234      1.0  0.95316  0.34311  0.18633  1.0000
  I   I235      1.0  0.56504  0.15159  0.28031  1.0000
  I   I236      1.0  0.90561  0.41848  0.68743  1.0000
  I   I237      1.0  0.26945  0.66014  0.78412  1.0000
  I   I238      1.0  0.57847  0.42130  0.44343  1.0000
  I   I239      1.0  0.29875  0.50217  0.25018  1.0000
  I   I240      1.0  0.62456  0.25603  0.91733  1.0000
  I   I241      1.0  0.89954  0.49603  0.37478  1.0000
  I   I242      1.0  0.65106  0.01490  0.84252  1.0000
  I   I243      1.0  0.67768  0.88742  0.31277  1.0000
  I   I244      1.0  0.86914  0.10285  0.35305  1.0000
  I   I245      1.0  0.44812  0.65427  0.12970  1.0000
  I   I246      1.0  0.95592  0.57241  0.91105  1.0000
  I   I247      1.0  0.85056  0.24427  0.38302  1.0000
  I   I248      1.0  0.29463  0.00487  0.41545  1.0000
  I   I249      1.0  0.26767  0.89901  0.09181  1.0000
  I   I250      1.0  0.16944  0.32770  0.03236  1.0000
  I   I251      1.0  0.10174  0.20442  0.42898  1.0000
  I   I252      1.0  0.24792  0.52476  0.53971  1.0000
  I   I253      1.0  0.13534  0.04367  0.22469  1.0000
  I   I254      1.0  0.97209  0.12203  0.45510  1.0000
  I   I255      1.0  0.68061  0.98234  0.55342  1.0000
  I   I256      1.0  0.82421  0.73807  0.80702  1.0000
  I   I257      1.0  0.28907  0.99119  0.73853  1.0000
  I   I258      1.0  0.86117  0.70523  0.13242  1.0000
  I   I259      1.0  0.57095  0.46533  0.11976  1.0000
  I   I260      1.0  0.92877  0.46810  0.00530  1.0000
  I   I261      1.0  0.26023  0.01565  0.52341  1.0000
  I   I262      1.0  0.77421  0.75552  0.48754  1.0000
  I   I263      1.0  0.45114  0.06407  0.58057  1.0000
  I   I264      1.0  0.36779  0.74123  0.87088  1.0000
  I   I265      1.0  0.53586  0.83675  0.74549  1.0000
  I   I266      1.0  0.34361  0.87732  0.29192  1.0000
  I   I267      1.0  0.83439  0.15139  0.71999  1.0000
  I   I268      1.0  0.66680  0.52310  0.55603  1.0000
  I   I269      1.0  0.92802  0.84593  0.07689  1.0000
  I   I270      1.0  0.41245  0.02758  0.04933  1.0000
  I   I271      1.0  0.07567  0.75515  0.87289  1.0000
  I   I272      1.0  0.85628  0.34694  0.01998  1.0000
  I   I273      1.0  0.10956  0.83098  0.31407  1.0000
  I   I274      1.0  0.40516  0.42315  0.72920  1.0000
  I   I275      1.0  0.58058  0.67595  0.88912  1.0000
  I   I276      1.0  0.79147  0.04033  0.95729  1.0000
  I   I277      1.0  0.13048  0.45990  0.35040  1.0000
  I   I278      1.0  0.51753  0.33047  0.10989  1.0000
  I   I279      1.0  0.93861  0.54498  0.18067  1.0000
  I   I280      1.0  0.57734  0.57001  0.28210  1.0000
  I   I281      1.0  0.49869  0.64644  0.48721  1.0000
  I   I282      1.0  0.00966  0.33752  0.34999  1.0000
  I   I283      1.0  0.53530  0.11945  0.34883  1.0000
  I   I284      1.0  0.92288  0.45722  0.76342  1.0000
  I   I285      1.0  0.35530  0.64734  0.58168  1.0000
  I   I286      1.0  0.60616  0.38540  0.34652  1.0000
  I   I287      1.0  0.30459  0.52903  0.13810  1.0000
  I   I288      1.0  0.66928  0.19841  0.78008  1.0000
  I   I289      1.0  0.84081  0.56199  0.38060  1.0000
  I   I290      1.0  0.98789  0.30564  0.70868  1.0000
  I   I291      1.0  0.65264  0.01865  0.95576  1.0000
  I   I292      1.0  0.89650  0.14282  0.37046  1.0000
  I   I293      1.0  0.44056  0.65248  0.00592  1.0000
  I   I294      1.0  0.98577  0.60126  0.84924  1.0000
  I   I295      1.0  0.85945  0.27251  0.52360  1.0000
  I   I296      1.0  0.23409  0.42078  0.73463  1.0000
  I   I297      1.0  0.27691  0.94281  0.01877  1.0000
  I   I298      1.0  0.58375  0.22218  0.32283  1.0000
  I   I299      1.0  0.85497  0.87396  0.22713  1.0000
  I   I300      1.0  0.22441  0.59617  0.56010  1.0000
  I   I301      1.0  0.73434  0.98436  0.57366  1.0000
  I   I302      1.0  0.18656  0.08753  0.12915  1.0000
  I   I303      1.0  0.30414  0.37992  0.98593  1.0000
  I   I304      1.0  0.83865  0.75088  0.04757  1.0000
  I   I305      1.0  0.84301  0.93699  0.33572  1.0000
  I   I306      1.0  0.54312  0.25404  0.11899  1.0000
  I   I307      1.0  0.59663  0.41843  0.87303  1.0000
  I   I308      1.0  0.18969  0.96448  0.65281  1.0000
  I   I309      1.0  0.24738  0.07193  0.45289  1.0000
  I   I310      1.0  0.57616  0.76117  0.47130  1.0000
  I   I311      1.0  0.49890  0.01961  0.74369  1.0000
  I   I312      1.0  0.01131  0.19901  0.13427  1.0000
  I   I313      1.0  0.79538  0.06753  0.62738  1.0000
  I   I314      1.0  0.62140  0.87454  0.68765  1.0000
  I   I315      1.0  0.39419  0.80399  0.45129  1.0000
  I   I316      1.0  0.44157  0.01086  0.15755  1.0000
  I   I317      1.0  0.65427  0.52703  0.65387  1.0000
  I   I318      1.0  0.99204  0.88202  0.96147  1.0000
  I   I319      1.0  0.66970  0.27853  0.73534  1.0000
  I   I320      1.0  0.71275  0.32532  0.22042  1.0000
  I   I321      1.0  0.83764  0.35136  0.14084  1.0000
  I   I322      1.0  0.43856  0.44934  0.77667  1.0000
  I   I323      1.0  0.61978  0.61747  0.81818  1.0000
  I   I324      1.0  0.82980  0.02737  0.88183  1.0000
  I   I325      1.0  0.19837  0.40592  0.35310  1.0000
  I   I326      1.0  0.57688  0.27810  0.15555  1.0000
  I   I327      1.0  0.89241  0.60596  0.12034  1.0000
  I   I328      1.0  0.23834  0.42057  0.03635  1.0000
  I   I329      1.0  0.46638  0.68714  0.60714  1.0000
  I   I330      1.0  0.97490  0.38196  0.26232  1.0000
  I   I331      1.0  0.39092  0.64456  0.68326  1.0000
  I   I332      1.0  0.53656  0.20303  0.35661  1.0000
  I   I333      1.0  0.88063  0.51173  0.71571  1.0000
  I   I334      1.0  0.66646  0.20508  0.99083  1.0000
  I   I335      1.0  0.53025  0.47010  0.36438  1.0000
  I   I336      1.0  0.24918  0.54013  0.18722  1.0000
  I   I337      1.0  0.04842  0.79098  0.02731  1.0000
  I   I338      1.0  0.03375  0.26924  0.79595  1.0000
  I   I339      1.0  0.59203  0.07389  0.89084  1.0000
  I   I340      1.0  0.89320  0.13990  0.11637  1.0000
  I   I341      1.0  0.69084  0.75445  0.26177  1.0000
  I   I342      1.0  0.02823  0.65440  0.88846  1.0000
  I   I343      1.0  0.81672  0.32670  0.45693  1.0000
  I   I344      1.0  0.21959  0.48123  0.79979  1.0000
  I   I345      1.0  0.27011  0.83814  0.10370  1.0000
  I   I346      1.0  0.59296  0.11070  0.34850  1.0000
  I   I347      1.0  0.22954  0.27565  0.02632  1.0000
  I   I348      1.0  0.13440  0.63950  0.50249  1.0000
  I   I349      1.0  0.66878  0.06427  0.56596  1.0000
  I   I350      1.0  0.13104  0.00752  0.12292  1.0000
  I   I351      1.0  0.03956  0.05220  0.47671  1.0000
  I   I352      1.0  0.94477  0.73268  0.12474  1.0000
  I   I353      1.0  0.75969  0.76067  0.74027  1.0000
  I   I354      1.0  0.55741  0.22116  0.95902  1.0000
  I   I355      1.0  0.63419  0.45048  0.07234  1.0000
  I   I356      1.0  0.97754  0.48487  0.94080  1.0000
  I   I357      1.0  0.50885  0.76420  0.89857  1.0000
  I   I358      1.0  0.32070  0.76506  0.78125  1.0000
  I   I359      1.0  0.53408  0.00253  0.58156  1.0000
  I   I360      1.0  0.99021  0.18754  0.23976  1.0000
  I   I361      1.0  0.78381  0.13771  0.64429  1.0000
  I   I362      1.0  0.64575  0.83523  0.79573  1.0000
  I   I363      1.0  0.32698  0.82672  0.32235  1.0000
  I   I364      1.0  0.48841  0.07405  0.99044  1.0000
  I   I365      1.0  0.70741  0.46615  0.61487  1.0000
  I   I366      1.0  0.98822  0.84516  0.07708  1.0000
  I   I367      1.0  0.66546  0.34603  0.71204  1.0000
  I   I368      1.0  0.77585  0.25912  0.21720  1.0000
  I   I369      1.0  0.91689  0.35740  0.05087  1.0000
  I   I370      1.0  0.42174  0.41769  0.86875  1.0000
  I   I371      1.0  0.63313  0.69581  0.89034  1.0000
  I   I372      1.0  0.76656  0.00575  0.88977  1.0000
  I   I373      1.0  0.12619  0.49293  0.44426  1.0000
  I   I374      1.0  0.48542  0.32995  0.00797  1.0000
  I   I375      1.0  0.87988  0.62824  0.22683  1.0000
  I   I376      1.0  0.54861  0.52178  0.30309  1.0000
  I   I377      1.0  0.43932  0.66399  0.55216  1.0000
  I   I378      1.0  0.96327  0.32742  0.29521  1.0000
  I   I379      1.0  0.26227  0.63550  0.71647  1.0000
  I   I380      1.0  0.20099  0.57909  0.84386  1.0000
  I   I381      1.0  0.85723  0.47616  0.75117  1.0000
  I   I382      1.0  0.70209  0.18404  0.90419  1.0000
  I   I383      1.0  0.54768  0.39933  0.34827  1.0000
  I   I384      1.0  0.21598  0.49141  0.16119  1.0000
