data_image0
_chemical_formula_structural       Ti96I384
_chemical_formula_sum              "Ti96 I384"
_cell_length_a       59.3594
_cell_length_b       59.8259
_cell_length_c       28.9301
_cell_angle_alpha    88.7757
_cell_angle_beta     88.7757
_cell_angle_gamma    62.1586

_space_group_name_H-M_alt    "P 1"
_space_group_IT_number       1

loop_
  _space_group_symop_operation_xyz
  'x, y, z'

loop_
  _atom_site_type_symbol
  _atom_site_label
  _atom_site_symmetry_multiplicity
  _atom_site_fract_x
  _atom_site_fract_y
  _atom_site_fract_z
  _atom_site_occupancy
  Ti  Ti1       1.0  0.94268  0.81686  0.75047  1.0000
  Ti  Ti2       1.0  0.76670  0.05057  0.68387  1.0000
  Ti  Ti3       1.0  0.77700  0.83525  0.75267  1.0000
  Ti  Ti4       1.0  0.41710  0.49630  0.38319  1.0000
  Ti  Ti5       1.0  0.05568  0.73289  0.20808  1.0000
  Ti  Ti6       1.0  0.32941  0.01479  0.16869  1.0000
  Ti  Ti7       1.0  0.08431  0.84164  0.99658  1.0000
  Ti  Ti8       1.0  0.20492  0.61828  0.26028  1.0000
  Ti  Ti9       1.0  0.76198  0.24885  0.29028  1.0000
  Ti  Ti10      1.0  0.70497  0.07323  0.34686  1.0000
  Ti  Ti11      1.0  0.04361  0.76047  0.89135  1.0000
  Ti  Ti12      1.0  0.50083  0.73246  0.12006  1.0000
  Ti  Ti13      1.0  0.38268  0.26259  0.59299  1.0000
  Ti  Ti14      1.0  0.08053  0.23902  0.96933  1.0000
  Ti  Ti15      1.0  0.23193  0.86216  0.88466  1.0000
  Ti  Ti16      1.0  0.87537  0.19598  0.62928  1.0000
  Ti  Ti17      1.0  0.09377  0.49704  0.04714  1.0000
  Ti  Ti18      1.0  0.01638  0.42608  0.38161  1.0000
  Ti  Ti19      1.0  0.69383  0.85307  0.36616  1.0000
  Ti  Ti20      1.0  0.52749  0.02203  0.07151  1.0000
  Ti  Ti21      1.0  0.28700  0.51500  0.72593  1.0000
  Ti  Ti22      1.0  0.48488  0.95729  0.33969  1.0000
  Ti  Ti23      1.0  0.49216  0.82970  0.83310  1.0000
  Ti  Ti24      1.0  0.43156  0.03448  0.53554  1.0000
  Ti  Ti25      1.0  0.18161  0.32258  0.34606  1.0000
  Ti  Ti26      1.0  0.24679  0.34816  0.71810  1.0000
  Ti  Ti27      1.0  0.45485  0.56786  0.68151  1.0000
  Ti  Ti28      1.0  0.63628  0.58447  0.68805  1.0000
  Ti  Ti29      1.0  0.98752  0.29738  0.39095  1.0000
  Ti  Ti30      1.0  0.79226  0.45525  0.85481  1.0000
  Ti  Ti31      1.0  0.82858  0.39966  0.34999  1.0000
  Ti  Ti32      1.0  0.89024  0.02261  0.03178  1.0000
  Ti  Ti33      1.0  0.37258  0.86114  0.61859  1.0000
  Ti  Ti34      1.0  0.90493  0.71741  0.49758  1.0000
  Ti  Ti35      1.0  0.64807  0.41304  0.03520  1.0000
  Ti  Ti36      1.0  0.93174  0.49986  0.72993  1.0000
  Ti  Ti37      1.0  0.11340  0.17529  0.64101  1.0000
  Ti  Ti38      1.0  0.59674  0.25230  0.45023  1.0000
  Ti  Ti39      1.0  0.34978  0.26670  0.21246  1.0000
  Ti  Ti40      1.0  0.13787  0.54938  0.20427  1.0000
  Ti  Ti41      1.0  0.60650  0.58506  0.35685  1.0000
  Ti  Ti42      1.0  0.27709  0.79155  0.60808  1.0000
  Ti  Ti43      1.0  0.10002  0.98560  0.46875  1.0000
  Ti  Ti44      1.0  0.75175  0.67592  0.97510  1.0000
  Ti  Ti45      1.0  0.75756  0.39262  0.57057  1.0000
  Ti  Ti46      1.0  0.92119  0.02611  0.36245  1.0000
  Ti  Ti47      1.0  0.59179  0.26185  0.10418  1.0000
  Ti  Ti48      1.0  0.46663  0.54404  0.07577  1.0000
  Ti  Ti49      1.0  0.90809  0.88551  0.78129  1.0000
  Ti  Ti50      1.0  0.59016  0.12751  0.01984  1.0000
  Ti  Ti51      1.0  0.75200  0.00434  0.63777  1.0000
  Ti  Ti52      1.0  0.45054  0.42385  0.38608  1.0000
  Ti  Ti53      1.0  0.00766  0.79621  0.14487  1.0000
  Ti  Ti54      1.0  0.29639  0.07634  0.14290  1.0000
  Ti  Ti55      1.0  0.07254  0.86979  0.88212  1.0000
  Ti  Ti56      1.0  0.26768  0.63218  0.20850  1.0000
  Ti  Ti57      1.0  0.81136  0.20177  0.23479  1.0000
  Ti  Ti58      1.0  0.09309  0.93328  0.49762  1.0000
  Ti  Ti59      1.0  0.71118  0.10779  0.43021  1.0000
  Ti  Ti60      1.0  0.48090  0.69354  0.09882  1.0000
  Ti  Ti61      1.0  0.24033  0.79355  0.91760  1.0000
  Ti  Ti62      1.0  0.38323  0.20404  0.56070  1.0000
  Ti  Ti63      1.0  0.06771  0.21029  0.10560  1.0000
  Ti  Ti64      1.0  0.01734  0.44678  0.24838  1.0000
  Ti  Ti65      1.0  0.94158  0.18449  0.60819  1.0000
  Ti  Ti66      1.0  0.55756  0.32024  0.81770  1.0000
  Ti  Ti67      1.0  0.73832  0.78766  0.31904  1.0000
  Ti  Ti68      1.0  0.49833  0.03679  0.97677  1.0000
  Ti  Ti69      1.0  0.31123  0.44746  0.73931  1.0000
  Ti  Ti70      1.0  0.47445  0.97206  0.47475  1.0000
  Ti  Ti71      1.0  0.43176  0.83860  0.91023  1.0000
  Ti  Ti72      1.0  0.97867  0.84356  0.47148  1.0000
  Ti  Ti73      1.0  0.44465  0.53243  0.76523  1.0000
  Ti  Ti74      1.0  0.24094  0.28635  0.33819  1.0000
  Ti  Ti75      1.0  0.19436  0.36626  0.74397  1.0000
  Ti  Ti76      1.0  0.76309  0.51099  0.88681  1.0000
  Ti  Ti77      1.0  0.56296  0.66126  0.67133  1.0000
  Ti  Ti78      1.0  0.04277  0.23870  0.35063  1.0000
  Ti  Ti79      1.0  0.40157  0.85469  0.50563  1.0000
  Ti  Ti80      1.0  0.76214  0.40916  0.30986  1.0000
  Ti  Ti81      1.0  0.86886  0.96341  0.06846  1.0000
  Ti  Ti82      1.0  0.89727  0.68754  0.58617  1.0000
  Ti  Ti83      1.0  0.67831  0.42915  0.91980  1.0000
  Ti  Ti84      1.0  0.95956  0.54904  0.69099  1.0000
  Ti  Ti85      1.0  0.10963  0.24638  0.59938  1.0000
  Ti  Ti86      1.0  0.53793  0.24033  0.52779  1.0000
  Ti  Ti87      1.0  0.31479  0.29266  0.08550  1.0000
  Ti  Ti88      1.0  0.06422  0.55053  0.19203  1.0000
  Ti  Ti89      1.0  0.62685  0.63457  0.31207  1.0000
  Ti  Ti90      1.0  0.26720  0.78053  0.51081  1.0000
  Ti  Ti91      1.0  0.70861  0.38758  0.63411  1.0000
  Ti  Ti92      1.0  0.02296  0.12622  0.00752  1.0000
  Ti  Ti93      1.0  0.76446  0.73124  0.99560  1.0000
  Ti  Ti94      1.0  0.42951  0.51809  0.06361  1.0000
  Ti  Ti95      1.0  0.91691  0.99238  0.44053  1.0000
  Ti  Ti96      1.0  0.59917  0.21279  0.01469  1.0000
  I   I1        1.0  0.60662  0.11801  0.93250  1.0000
  I   I2        1.0  0.75602  0.00618  0.54940  1.0000
  I   I3        1.0  0.89538  0.86463  0.70063  1.0000
  I   I4        1.0  0.04037  0.77510  0.07845  1.0000
  I   I5        1.0  0.33446  0.98444  0.24038  1.0000
  I   I6        1.0  0.30465  0.11478  0.17818  1.0000
  I   I7        1.0  0.29610  0.64309  0.25872  1.0000
  I   I8        1.0  0.20576  0.57791  0.24251  1.0000
  I   I9        1.0  0.72950  0.25593  0.36389  1.0000
  I   I10       1.0  0.68630  0.04807  0.39768  1.0000
  I   I11       1.0  0.05051  0.72358  0.83881  1.0000
  I   I12       1.0  0.07448  0.68371  0.18687  1.0000
  I   I13       1.0  0.38428  0.22415  0.65974  1.0000
  I   I14       1.0  0.04171  0.28317  0.97394  1.0000
  I   I15       1.0  0.21290  0.83336  0.96185  1.0000
  I   I16       1.0  0.90001  0.20389  0.54486  1.0000
  I   I17       1.0  0.53214  0.34322  0.74210  1.0000
  I   I18       1.0  0.03818  0.40209  0.28219  1.0000
  I   I19       1.0  0.50808  0.07246  0.01382  1.0000
  I   I20       1.0  0.00137  0.77943  0.93734  1.0000
  I   I21       1.0  0.34597  0.41653  0.68280  1.0000
  I   I22       1.0  0.47076  0.86711  0.89521  1.0000
  I   I23       1.0  0.43895  0.84389  0.82030  1.0000
  I   I24       1.0  0.43236  0.98648  0.53714  1.0000
  I   I25       1.0  0.22139  0.31953  0.40647  1.0000
  I   I26       1.0  0.22443  0.38299  0.79416  1.0000
  I   I27       1.0  0.49474  0.56401  0.72160  1.0000
  I   I28       1.0  0.57635  0.62034  0.61822  1.0000
  I   I29       1.0  0.02840  0.26243  0.44300  1.0000
  I   I30       1.0  0.82840  0.46360  0.82863  1.0000
  I   I31       1.0  0.74661  0.38235  0.25494  1.0000
  I   I32       1.0  0.85865  0.95546  0.15360  1.0000
  I   I33       1.0  0.36079  0.89169  0.47378  1.0000
  I   I34       1.0  0.65968  0.39575  0.11906  1.0000
  I   I35       1.0  0.97105  0.56072  0.60886  1.0000
  I   I36       1.0  0.89421  0.73397  0.60234  1.0000
  I   I37       1.0  0.08633  0.17457  0.71280  1.0000
  I   I38       1.0  0.29942  0.27586  0.17064  1.0000
  I   I39       1.0  0.06506  0.28011  0.62008  1.0000
  I   I40       1.0  0.64301  0.54232  0.32729  1.0000
  I   I41       1.0  0.30038  0.74271  0.56226  1.0000
  I   I42       1.0  0.02068  0.58630  0.16467  1.0000
  I   I43       1.0  0.06204  0.98896  0.52457  1.0000
  I   I44       1.0  0.77303  0.74809  0.91208  1.0000
  I   I45       1.0  0.74973  0.35118  0.56817  1.0000
  I   I46       1.0  0.96445  0.98826  0.32828  1.0000
  I   I47       1.0  0.55644  0.26890  0.16773  1.0000
  I   I48       1.0  0.45214  0.53510  0.98576  1.0000
  I   I49       1.0  0.92194  0.78479  0.74133  1.0000
  I   I50       1.0  0.73577  0.09014  0.72007  1.0000
  I   I51       1.0  0.80735  0.05195  0.70301  1.0000
  I   I52       1.0  0.38160  0.53622  0.41991  1.0000
  I   I53       1.0  0.03071  0.77787  0.24614  1.0000
  I   I54       1.0  0.31218  0.09258  0.06245  1.0000
  I   I55       1.0  0.10450  0.81724  0.06809  1.0000
  I   I56       1.0  0.19510  0.61853  0.34820  1.0000
  I   I57       1.0  0.85791  0.17436  0.21104  1.0000
  I   I58       1.0  0.75537  0.05335  0.39948  1.0000
  I   I59       1.0  0.72315  0.11072  0.33991  1.0000
  I   I60       1.0  0.44410  0.68134  0.11688  1.0000
  I   I61       1.0  0.42457  0.16201  0.59110  1.0000
  I   I62       1.0  0.35262  0.17742  0.57198  1.0000
  I   I63       1.0  0.11421  0.20202  0.06988  1.0000
  I   I64       1.0  0.84594  0.22499  0.70161  1.0000
  I   I65       1.0  0.94866  0.14004  0.57911  1.0000
  I   I66       1.0  0.59007  0.27770  0.78263  1.0000
  I   I67       1.0  0.78642  0.76924  0.29291  1.0000
  I   I68       1.0  0.55277  0.04026  0.11309  1.0000
  I   I69       1.0  0.29158  0.53195  0.64523  1.0000
  I   I70       1.0  0.51015  0.97595  0.40915  1.0000
  I   I71       1.0  0.48113  0.79935  0.90580  1.0000
  I   I72       1.0  0.99145  0.87526  0.49483  1.0000
  I   I73       1.0  0.48745  0.52477  0.81157  1.0000
  I   I74       1.0  0.20388  0.39649  0.68090  1.0000
  I   I75       1.0  0.16837  0.35304  0.69514  1.0000
  I   I76       1.0  0.68103  0.58049  0.70633  1.0000
  I   I77       1.0  0.64269  0.56300  0.61341  1.0000
  I   I78       1.0  0.99354  0.24043  0.37297  1.0000
  I   I79       1.0  0.43221  0.86601  0.45866  1.0000
  I   I80       1.0  0.79852  0.37171  0.35713  1.0000
  I   I81       1.0  0.88757  0.97910  0.98795  1.0000
  I   I82       1.0  0.87546  0.69068  0.50025  1.0000
  I   I83       1.0  0.60159  0.44933  0.05105  1.0000
  I   I84       1.0  0.94210  0.54162  0.77087  1.0000
  I   I85       1.0  0.08760  0.21736  0.57059  1.0000
  I   I86       1.0  0.51033  0.25399  0.44821  1.0000
  I   I87       1.0  0.33931  0.31060  0.24605  1.0000
  I   I88       1.0  0.13107  0.58158  0.26980  1.0000
  I   I89       1.0  0.63881  0.66976  0.34803  1.0000
  I   I90       1.0  0.23539  0.77835  0.59971  1.0000
  I   I91       1.0  0.69631  0.34967  0.62861  1.0000
  I   I92       1.0  0.00518  0.17200  0.04268  1.0000
  I   I93       1.0  0.80443  0.68047  0.95870  1.0000
  I   I94       1.0  0.46615  0.58829  0.08094  1.0000
  I   I95       1.0  0.95582  0.95059  0.45536  1.0000
  I   I96       1.0  0.61397  0.20352  0.11061  1.0000
  I   I97       1.0  0.76159  0.84329  0.83718  1.0000
  I   I98       1.0  0.90229  0.84139  0.81296  1.0000
  I   I99       1.0  0.75722  0.02073  0.73799  1.0000
  I   I100      1.0  0.39054  0.50062  0.30899  1.0000
  I   I101      1.0  0.49763  0.39301  0.41164  1.0000
  I   I102      1.0  0.09037  0.73604  0.15524  1.0000
  I   I103      1.0  0.10890  0.80710  0.92529  1.0000
  I   I104      1.0  0.03757  0.91767  0.88302  1.0000
  I   I105      1.0  0.72645  0.23465  0.26387  1.0000
  I   I106      1.0  0.53596  0.73767  0.07015  1.0000
  I   I107      1.0  0.71288  0.05955  0.26495  1.0000
  I   I108      1.0  0.48078  0.70928  0.18896  1.0000
  I   I109      1.0  0.23694  0.88790  0.81422  1.0000
  I   I110      1.0  0.38308  0.19801  0.47296  1.0000
  I   I111      1.0  0.11038  0.26129  0.97596  1.0000
  I   I112      1.0  0.02072  0.47840  0.30780  1.0000
  I   I113      1.0  0.91122  0.20013  0.68086  1.0000
  I   I114      1.0  0.06085  0.54418  0.03136  1.0000
  I   I115      1.0  0.66143  0.86999  0.43334  1.0000
  I   I116      1.0  0.72099  0.76470  0.27185  1.0000
  I   I117      1.0  0.44902  0.06152  0.97246  1.0000
  I   I118      1.0  0.45175  0.95492  0.41114  1.0000
  I   I119      1.0  0.44445  0.98311  0.29435  1.0000
  I   I120      1.0  0.97966  0.81476  0.54157  1.0000
  I   I121      1.0  0.48214  0.52679  0.62919  1.0000
  I   I122      1.0  0.27845  0.29174  0.30830  1.0000
  I   I123      1.0  0.26795  0.37029  0.65636  1.0000
  I   I124      1.0  0.79551  0.51409  0.94022  1.0000
  I   I125      1.0  0.62156  0.63391  0.66988  1.0000
  I   I126      1.0  0.08209  0.19789  0.38500  1.0000
  I   I127      1.0  0.36687  0.85796  0.71197  1.0000
  I   I128      1.0  0.87726  0.36535  0.32826  1.0000
  I   I129      1.0  0.85485  0.01289  0.09678  1.0000
  I   I130      1.0  0.94244  0.46863  0.65908  1.0000
  I   I131      1.0  0.85757  0.75986  0.48586  1.0000
  I   I132      1.0  0.69985  0.39997  0.00063  1.0000
  I   I133      1.0  0.34110  0.24076  0.27737  1.0000
  I   I134      1.0  0.58134  0.21001  0.46118  1.0000
  I   I135      1.0  0.62162  0.22351  0.37315  1.0000
  I   I136      1.0  0.25151  0.83828  0.61862  1.0000
  I   I137      1.0  0.11385  0.51695  0.22205  1.0000
  I   I138      1.0  0.56920  0.57452  0.36507  1.0000
  I   I139      1.0  0.80796  0.35591  0.56784  1.0000
  I   I140      1.0  0.06156  0.08787  0.05434  1.0000
  I   I141      1.0  0.80240  0.72938  0.03917  1.0000
  I   I142      1.0  0.42549  0.56129  0.13433  1.0000
  I   I143      1.0  0.87287  0.04106  0.40868  1.0000
  I   I144      1.0  0.58109  0.30423  0.07032  1.0000
  I   I145      1.0  0.95274  0.86890  0.73847  1.0000
  I   I146      1.0  0.70985  0.05154  0.62712  1.0000
  I   I147      1.0  0.82404  0.80887  0.73468  1.0000
  I   I148      1.0  0.43587  0.39117  0.37097  1.0000
  I   I149      1.0  0.01020  0.83567  0.17095  1.0000
  I   I150      1.0  0.28566  0.03603  0.12794  1.0000
  I   I151      1.0  0.11631  0.86916  0.85798  1.0000
  I   I152      1.0  0.24698  0.67770  0.16481  1.0000
  I   I153      1.0  0.73273  0.29604  0.28542  1.0000
  I   I154      1.0  0.12596  0.91812  0.43077  1.0000
  I   I155      1.0  0.07857  0.73676  0.94828  1.0000
  I   I156      1.0  0.53455  0.72836  0.18977  1.0000
  I   I157      1.0  0.28785  0.79152  0.92027  1.0000
  I   I158      1.0  0.04957  0.17906  0.13503  1.0000
  I   I159      1.0  0.25434  0.75551  0.85200  1.0000
  I   I160      1.0  0.99834  0.46820  0.42063  1.0000
  I   I161      1.0  0.09471  0.47153  0.97499  1.0000
  I   I162      1.0  0.97970  0.44888  0.31446  1.0000
  I   I163      1.0  0.73681  0.78179  0.40630  1.0000
  I   I164      1.0  0.55603  0.00932  0.98691  1.0000
  I   I165      1.0  0.27546  0.47920  0.67111  1.0000
  I   I166      1.0  0.50269  0.92739  0.50353  1.0000
  I   I167      1.0  0.53911  0.81433  0.83866  1.0000
  I   I168      1.0  0.44204  0.07363  0.53138  1.0000
  I   I169      1.0  0.20859  0.32673  0.27322  1.0000
  I   I170      1.0  0.16849  0.29510  0.39758  1.0000
  I   I171      1.0  0.41222  0.55508  0.68196  1.0000
  I   I172      1.0  0.72775  0.53513  0.94380  1.0000
  I   I173      1.0  0.06452  0.26138  0.30556  1.0000
  I   I174      1.0  0.79325  0.43082  0.77506  1.0000
  I   I175      1.0  0.78012  0.43684  0.37487  1.0000
  I   I176      1.0  0.84859  0.94289  0.01269  1.0000
  I   I177      1.0  0.38731  0.89543  0.58970  1.0000
  I   I178      1.0  0.93397  0.74225  0.50675  1.0000
  I   I179      1.0  0.63718  0.38695  0.98220  1.0000
  I   I180      1.0  0.91634  0.54664  0.65405  1.0000
  I   I181      1.0  0.15852  0.13846  0.66622  1.0000
  I   I182      1.0  0.53525  0.20230  0.56191  1.0000
  I   I183      1.0  0.39698  0.25177  0.22080  1.0000
  I   I184      1.0  0.17765  0.51362  0.25385  1.0000
  I   I185      1.0  0.62400  0.57946  0.44054  1.0000
  I   I186      1.0  0.24419  0.82814  0.49012  1.0000
  I   I187      1.0  0.98075  0.12365  0.00429  1.0000
  I   I188      1.0  0.76339  0.69127  0.06040  1.0000
  I   I189      1.0  0.70422  0.42088  0.56833  1.0000
  I   I190      1.0  0.92227  0.06757  0.33674  1.0000
  I   I191      1.0  0.62029  0.16264  0.00147  1.0000
  I   I192      1.0  0.45069  0.47462  0.02221  1.0000
  I   I193      1.0  0.90621  0.90725  0.86329  1.0000
  I   I194      1.0  0.62659  0.08956  0.06068  1.0000
  I   I195      1.0  0.76026  0.81594  0.69400  1.0000
  I   I196      1.0  0.44744  0.46207  0.44629  1.0000
  I   I197      1.0  0.12490  0.94217  0.55517  1.0000
  I   I198      1.0  0.35416  0.04690  0.15813  1.0000
  I   I199      1.0  0.09763  0.87919  0.96836  1.0000
  I   I200      1.0  0.29325  0.61298  0.12859  1.0000
  I   I201      1.0  0.81400  0.23746  0.30489  1.0000
  I   I202      1.0  0.74912  0.11619  0.45790  1.0000
  I   I203      1.0  0.28933  0.41939  0.76970  1.0000
  I   I204      1.0  0.49497  0.66943  0.01507  1.0000
  I   I205      1.0  0.37684  0.28818  0.66944  1.0000
  I   I206      1.0  0.08222  0.21856  0.18241  1.0000
  I   I207      1.0  0.23668  0.76328  0.97570  1.0000
  I   I208      1.0  0.83344  0.21013  0.59049  1.0000
  I   I209      1.0  0.13826  0.49253  0.00236  1.0000
  I   I210      1.0  0.00527  0.39206  0.41346  1.0000
  I   I211      1.0  0.73565  0.83471  0.29152  1.0000
  I   I212      1.0  0.52712  0.99149  0.13905  1.0000
  I   I213      1.0  0.28767  0.55197  0.77287  1.0000
  I   I214      1.0  0.50213  0.90863  0.33895  1.0000
  I   I215      1.0  0.43123  0.83380  0.00489  1.0000
  I   I216      1.0  0.38733  0.06227  0.49640  1.0000
  I   I217      1.0  0.14718  0.32836  0.28387  1.0000
  I   I218      1.0  0.29422  0.32797  0.75045  1.0000
  I   I219      1.0  0.42385  0.59161  0.76479  1.0000
  I   I220      1.0  0.51602  0.68694  0.68414  1.0000
  I   I221      1.0  0.02676  0.22106  0.27561  1.0000
  I   I222      1.0  0.81823  0.40678  0.89619  1.0000
  I   I223      1.0  0.74243  0.44606  0.25314  1.0000
  I   I224      1.0  0.87331  0.06935  0.04991  1.0000
  I   I225      1.0  0.32655  0.89451  0.60862  1.0000
  I   I226      1.0  0.94427  0.67355  0.54762  1.0000
  I   I227      1.0  0.65089  0.45668  0.99271  1.0000
  I   I228      1.0  0.98314  0.49753  0.69305  1.0000
  I   I229      1.0  0.13785  0.26880  0.61265  1.0000
  I   I230      1.0  0.63394  0.26555  0.47874  1.0000
  I   I231      1.0  0.28153  0.33873  0.07597  1.0000
  I   I232      1.0  0.16558  0.56023  0.14361  1.0000
  I   I233      1.0  0.59085  0.64017  0.36813  1.0000
  I   I234      1.0  0.24671  0.76572  0.44712  1.0000
  I   I235      1.0  0.10485  0.01805  0.51159  1.0000
  I   I236      1.0  0.77975  0.62634  0.98335  1.0000
  I   I237      1.0  0.76268  0.39846  0.48222  1.0000
  I   I238      1.0  0.89386  0.97486  0.39670  1.0000
  I   I239      1.0  0.55235  0.24505  0.05554  1.0000
  I   I240      1.0  0.38628  0.54777  0.02483  1.0000
  I   I241      1.0  0.98681  0.79496  0.70403  1.0000
  I   I242      1.0  0.75779  0.07474  0.59365  1.0000
  I   I243      1.0  0.75221  0.88330  0.72069  1.0000
  I   I244      1.0  0.44648  0.51334  0.35296  1.0000
  I   I245      1.0  0.08458  0.72535  0.28939  1.0000
  I   I246      1.0  0.35670  0.98143  0.10686  1.0000
  I   I247      1.0  0.03846  0.86123  0.94456  1.0000
  I   I248      1.0  0.21685  0.65746  0.26154  1.0000
  I   I249      1.0  0.79547  0.19171  0.31056  1.0000
  I   I250      1.0  0.65949  0.11066  0.34812  1.0000
  I   I251      1.0  0.07231  0.77864  0.84190  1.0000
  I   I252      1.0  0.46472  0.73997  0.04854  1.0000
  I   I253      1.0  0.34118  0.25276  0.56042  1.0000
  I   I254      1.0  0.08000  0.23059  0.88632  1.0000
  I   I255      1.0  0.21872  0.82909  0.83467  1.0000
  I   I256      1.0  0.98312  0.17148  0.65784  1.0000
  I   I257      1.0  0.11564  0.46703  0.11713  1.0000
  I   I258      1.0  0.04763  0.43914  0.18076  1.0000
  I   I259      1.0  0.72708  0.86108  0.41400  1.0000
  I   I260      1.0  0.50457  0.05149  0.89233  1.0000
  I   I261      1.0  0.25651  0.50606  0.79134  1.0000
  I   I262      1.0  0.51314  0.96451  0.27170  1.0000
  I   I263      1.0  0.48841  0.85884  0.75935  1.0000
  I   I264      1.0  0.41542  0.03498  0.62398  1.0000
  I   I265      1.0  0.15165  0.36902  0.37752  1.0000
  I   I266      1.0  0.22827  0.32261  0.79119  1.0000
  I   I267      1.0  0.44179  0.60850  0.63104  1.0000
  I   I268      1.0  0.57099  0.63984  0.75613  1.0000
  I   I269      1.0  0.96668  0.31524  0.47029  1.0000
  I   I270      1.0  0.77272  0.46488  0.94149  1.0000
  I   I271      1.0  0.81492  0.42048  0.26147  1.0000
  I   I272      1.0  0.93454  0.99648  0.06679  1.0000
  I   I273      1.0  0.37065  0.83309  0.54251  1.0000
  I   I274      1.0  0.89346  0.64312  0.59592  1.0000
  I   I275      1.0  0.70109  0.38378  0.87963  1.0000
  I   I276      1.0  0.95731  0.46321  0.79404  1.0000
  I   I277      1.0  0.08866  0.15549  0.59176  1.0000
  I   I278      1.0  0.58610  0.24287  0.54059  1.0000
  I   I279      1.0  0.32547  0.29205  0.99074  1.0000
  I   I280      1.0  0.05271  0.54570  0.27935  1.0000
  I   I281      1.0  0.61354  0.59318  0.25835  1.0000
  I   I282      1.0  0.29823  0.77943  0.68903  1.0000
  I   I283      1.0  0.08124  0.00571  0.38883  1.0000
  I   I284      1.0  0.73666  0.67909  0.89115  1.0000
  I   I285      1.0  0.75294  0.42558  0.63095  1.0000
  I   I286      1.0  0.90295  0.02411  0.28258  1.0000
  I   I287      1.0  0.58591  0.21910  0.93134  1.0000
  I   I288      1.0  0.51842  0.52479  0.06563  1.0000
  I   I289      1.0  0.96642  0.79982  0.82886  1.0000
  I   I290      1.0  0.56534  0.10326  0.00595  1.0000
  I   I291      1.0  0.80084  0.99567  0.64673  1.0000
  I   I292      1.0  0.45064  0.43805  0.29264  1.0000
  I   I293      1.0  0.96446  0.82416  0.10521  1.0000
  I   I294      1.0  0.30502  0.05213  0.23426  1.0000
  I   I295      1.0  0.04603  0.86571  0.06224  1.0000
  I   I296      1.0  0.26013  0.59481  0.25599  1.0000
  I   I297      1.0  0.79614  0.17593  0.17597  1.0000
  I   I298      1.0  0.04678  0.95539  0.45678  1.0000
  I   I299      1.0  0.68983  0.09117  0.49212  1.0000
  I   I300      1.0  0.53227  0.67143  0.12102  1.0000
  I   I301      1.0  0.24785  0.87656  0.95240  1.0000
  I   I302      1.0  0.38941  0.29429  0.54054  1.0000
  I   I303      1.0  0.05739  0.21413  0.00786  1.0000
  I   I304      1.0  0.06486  0.41492  0.39663  1.0000
  I   I305      1.0  0.88519  0.14982  0.66464  1.0000
  I   I306      1.0  0.52256  0.31877  0.87270  1.0000
  I   I307      1.0  0.67105  0.88912  0.30434  1.0000
  I   I308      1.0  0.47787  0.05683  0.10347  1.0000
  I   I309      1.0  0.33513  0.48116  0.72914  1.0000
  I   I310      1.0  0.49516  0.99032  0.53846  1.0000
  I   I311      1.0  0.38506  0.87400  0.91198  1.0000
  I   I312      1.0  0.93421  0.86909  0.43163  1.0000
  I   I313      1.0  0.46457  0.48380  0.75667  1.0000
  I   I314      1.0  0.23630  0.25537  0.27526  1.0000
  I   I315      1.0  0.24373  0.31729  0.66330  1.0000
  I   I316      1.0  0.75125  0.49232  0.81155  1.0000
  I   I317      1.0  0.57238  0.69972  0.68440  1.0000
  I   I318      1.0  0.00881  0.32513  0.36582  1.0000
  I   I319      1.0  0.42551  0.82814  0.60735  1.0000
  I   I320      1.0  0.84638  0.41195  0.41955  1.0000
  I   I321      1.0  0.90305  0.03614  0.95244  1.0000
  I   I322      1.0  0.87885  0.70014  0.67510  1.0000
  I   I323      1.0  0.64485  0.46534  0.85700  1.0000
  I   I324      1.0  0.98539  0.56863  0.72051  1.0000
  I   I325      1.0  0.10692  0.26523  0.50576  1.0000
  I   I326      1.0  0.50750  0.27857  0.57638  1.0000
  I   I327      1.0  0.29860  0.25786  0.06527  1.0000
  I   I328      1.0  0.06074  0.51324  0.14353  1.0000
  I   I329      1.0  0.66965  0.59611  0.33176  1.0000
  I   I330      1.0  0.31809  0.79502  0.56929  1.0000
  I   I331      1.0  0.66167  0.41546  0.66750  1.0000
  I   I332      1.0  0.15007  0.96481  0.43868  1.0000
  I   I333      1.0  0.72765  0.77322  0.02949  1.0000
  I   I334      1.0  0.41199  0.49884  0.12664  1.0000
  I   I335      1.0  0.89943  0.01342  0.51911  1.0000
  I   I336      1.0  0.63458  0.25066  0.15442  1.0000
  I   I337      1.0  0.88076  0.93165  0.74124  1.0000
  I   I338      1.0  0.57561  0.14889  0.10721  1.0000
  I   I339      1.0  0.72981  0.97854  0.66702  1.0000
  I   I340      1.0  0.39912  0.45791  0.40112  1.0000
  I   I341      1.0  0.01201  0.74737  0.16241  1.0000
  I   I342      1.0  0.24893  0.09783  0.16167  1.0000
  I   I343      1.0  0.06500  0.85336  0.80881  1.0000
  I   I344      1.0  0.15774  0.65023  0.23525  1.0000
  I   I345      1.0  0.78888  0.24337  0.19194  1.0000
  I   I346      1.0  0.09974  0.89524  0.55758  1.0000
  I   I347      1.0  0.67489  0.15223  0.44812  1.0000
  I   I348      1.0  0.47135  0.77575  0.15574  1.0000
  I   I349      1.0  0.18462  0.89609  0.88312  1.0000
  I   I350      1.0  0.41785  0.22134  0.55335  1.0000
  I   I351      1.0  0.02586  0.25757  0.09331  1.0000
  I   I352      1.0  0.97757  0.47390  0.19626  1.0000
  I   I353      1.0  0.94354  0.22578  0.58465  1.0000
  I   I354      1.0  0.57431  0.35096  0.84233  1.0000
  I   I355      1.0  0.67801  0.81972  0.33736  1.0000
  I   I356      1.0  0.50405  0.99514  0.02650  1.0000
  I   I357      1.0  0.33062  0.44283  0.82188  1.0000
  I   I358      1.0  0.43964  0.01966  0.43360  1.0000
  I   I359      1.0  0.41594  0.80305  0.89010  1.0000
  I   I360      1.0  0.00859  0.82941  0.39709  1.0000
  I   I361      1.0  0.40699  0.54102  0.82067  1.0000
  I   I362      1.0  0.26549  0.24615  0.39412  1.0000
  I   I363      1.0  0.15256  0.40372  0.77444  1.0000
  I   I364      1.0  0.77031  0.54123  0.82002  1.0000
  I   I365      1.0  0.62681  0.56335  0.75383  1.0000
  I   I366      1.0  0.96280  0.30509  0.30836  1.0000
  I   I367      1.0  0.42173  0.81083  0.45179  1.0000
  I   I368      1.0  0.72651  0.42055  0.37569  1.0000
  I   I369      1.0  0.91129  0.92082  0.07464  1.0000
  I   I370      1.0  0.91444  0.70754  0.41338  1.0000
  I   I371      1.0  0.71456  0.44366  0.92787  1.0000
  I   I372      1.0  0.88348  0.51468  0.74764  1.0000
  I   I373      1.0  0.12185  0.21344  0.66458  1.0000
  I   I374      1.0  0.55232  0.29124  0.44597  1.0000
  I   I375      1.0  0.35748  0.29111  0.12210  1.0000
  I   I376      1.0  0.09282  0.57725  0.15437  1.0000
  I   I377      1.0  0.61684  0.65217  0.22914  1.0000
  I   I378      1.0  0.30348  0.77053  0.45099  1.0000
  I   I379      1.0  0.74254  0.36286  0.69694  1.0000
  I   I380      1.0  0.04292  0.12258  0.92654  1.0000
  I   I381      1.0  0.70609  0.69671  0.01052  1.0000
  I   I382      1.0  0.47568  0.49727  0.12469  1.0000
  I   I383      1.0  0.95034  0.01848  0.45344  1.0000
  I   I384      1.0  0.62787  0.23574  0.01115  1.0000
