data_image0
_chemical_formula_structural       Ti96I384
_chemical_formula_sum              "Ti96 I384"
_cell_length_a       81.8097
_cell_length_b       81.3269
_cell_length_c       39.7156
_cell_angle_alpha    88.7757
_cell_angle_beta     88.7757
_cell_angle_gamma    62.1586

_space_group_name_H-M_alt    "P 1"
_space_group_IT_number       1

loop_
  _space_group_symop_operation_xyz
  'x, y, z'

loop_
  _atom_site_type_symbol
  _atom_site_label
  _atom_site_symmetry_multiplicity
  _atom_site_fract_x
  _atom_site_fract_y
  _atom_site_fract_z
  _atom_site_occupancy
  Ti  Ti1       1.0  0.83605  0.08744  0.75412  1.0000
  Ti  Ti2       1.0  0.68592  0.39311  0.54879  1.0000
  Ti  Ti3       1.0  0.02174  0.98059  0.34530  1.0000
  Ti  Ti4       1.0  0.39726  0.78562  0.82229  1.0000
  Ti  Ti5       1.0  0.86906  0.33012  0.58727  1.0000
  Ti  Ti6       1.0  0.14503  0.06186  0.97131  1.0000
  Ti  Ti7       1.0  0.45654  0.51606  0.57529  1.0000
  Ti  Ti8       1.0  0.25849  0.70706  0.47338  1.0000
  Ti  Ti9       1.0  0.06944  0.04206  0.54417  1.0000
  Ti  Ti10      1.0  0.83462  0.19743  0.06215  1.0000
  Ti  Ti11      1.0  0.39149  0.75096  0.47775  1.0000
  Ti  Ti12      1.0  0.43602  0.12860  0.86623  1.0000
  Ti  Ti13      1.0  0.45423  0.59915  0.29408  1.0000
  Ti  Ti14      1.0  0.36857  0.77739  0.89865  1.0000
  Ti  Ti15      1.0  0.52775  0.46251  0.91622  1.0000
  Ti  Ti16      1.0  0.87751  0.86559  0.80474  1.0000
  Ti  Ti17      1.0  0.70009  0.00427  0.62773  1.0000
  Ti  Ti18      1.0  0.33176  0.45951  0.51654  1.0000
  Ti  Ti19      1.0  0.52506  0.98283  0.27357  1.0000
  Ti  Ti20      1.0  0.64062  0.82050  0.82475  1.0000
  Ti  Ti21      1.0  0.15532  0.48548  0.52089  1.0000
  Ti  Ti22      1.0  0.27778  0.35856  0.60209  1.0000
  Ti  Ti23      1.0  0.41966  0.88986  0.32540  1.0000
  Ti  Ti24      1.0  0.96841  0.24456  0.88999  1.0000
  Ti  Ti25      1.0  0.08492  0.99865  0.91173  1.0000
  Ti  Ti26      1.0  0.30687  0.50446  0.72056  1.0000
  Ti  Ti27      1.0  0.09206  0.76189  0.29548  1.0000
  Ti  Ti28      1.0  0.23282  0.31932  0.03434  1.0000
  Ti  Ti29      1.0  0.58606  0.73776  0.33341  1.0000
  Ti  Ti30      1.0  0.69629  0.45760  0.26192  1.0000
  Ti  Ti31      1.0  0.84470  0.98153  0.04835  1.0000
  Ti  Ti32      1.0  0.87038  0.42226  0.92657  1.0000
  Ti  Ti33      1.0  0.92545  0.01601  0.58634  1.0000
  Ti  Ti34      1.0  0.56200  0.67455  0.87132  1.0000
  Ti  Ti35      1.0  0.98859  0.37142  0.09330  1.0000
  Ti  Ti36      1.0  0.50086  0.64196  0.61493  1.0000
  Ti  Ti37      1.0  0.24944  0.99238  0.26609  1.0000
  Ti  Ti38      1.0  0.61971  0.62953  0.65816  1.0000
  Ti  Ti39      1.0  0.80937  0.18386  0.01172  1.0000
  Ti  Ti40      1.0  0.90829  0.98277  0.12998  1.0000
  Ti  Ti41      1.0  0.54867  0.71849  0.16112  1.0000
  Ti  Ti42      1.0  0.22028  0.70530  0.80517  1.0000
  Ti  Ti43      1.0  0.33346  0.75262  0.55430  1.0000
  Ti  Ti44      1.0  0.37270  0.41739  0.11553  1.0000
  Ti  Ti45      1.0  0.71195  0.35159  0.32498  1.0000
  Ti  Ti46      1.0  0.04432  0.59545  0.37919  1.0000
  Ti  Ti47      1.0  0.06003  0.70131  0.39151  1.0000
  Ti  Ti48      1.0  0.25116  0.14267  0.92200  1.0000
  Ti  Ti49      1.0  0.40195  0.79935  0.16177  1.0000
  Ti  Ti50      1.0  0.20949  0.49958  0.83180  1.0000
  Ti  Ti51      1.0  0.39420  0.93734  0.28958  1.0000
  Ti  Ti52      1.0  0.10795  0.30701  0.36622  1.0000
  Ti  Ti53      1.0  0.61788  0.57288  0.33882  1.0000
  Ti  Ti54      1.0  0.93608  0.89143  0.05619  1.0000
  Ti  Ti55      1.0  0.95329  0.70269  0.72719  1.0000
  Ti  Ti56      1.0  0.64146  0.36923  0.69706  1.0000
  Ti  Ti57      1.0  0.07238  0.02210  0.61349  1.0000
  Ti  Ti58      1.0  0.94651  0.73399  0.98746  1.0000
  Ti  Ti59      1.0  0.87163  0.91815  0.78972  1.0000
  Ti  Ti60      1.0  0.52594  0.96801  0.35495  1.0000
  Ti  Ti61      1.0  0.59823  0.24088  0.62368  1.0000
  Ti  Ti62      1.0  0.43681  0.56352  0.27670  1.0000
  Ti  Ti63      1.0  0.24888  0.42292  0.16122  1.0000
  Ti  Ti64      1.0  0.31430  0.45057  0.45878  1.0000
  Ti  Ti65      1.0  0.43996  0.27915  0.88074  1.0000
  Ti  Ti66      1.0  0.93497  0.14536  0.22262  1.0000
  Ti  Ti67      1.0  0.83099  0.84071  0.63586  1.0000
  Ti  Ti68      1.0  0.33962  0.29284  0.99974  1.0000
  Ti  Ti69      1.0  0.32306  0.50652  0.79140  1.0000
  Ti  Ti70      1.0  0.37087  0.91071  0.82826  1.0000
  Ti  Ti71      1.0  0.72403  0.53954  0.05252  1.0000
  Ti  Ti72      1.0  0.35325  0.83859  0.32165  1.0000
  Ti  Ti73      1.0  0.09903  0.99910  0.17318  1.0000
  Ti  Ti74      1.0  0.07756  0.97734  0.97448  1.0000
  Ti  Ti75      1.0  0.38857  0.78411  0.08675  1.0000
  Ti  Ti76      1.0  0.88079  0.56295  0.73920  1.0000
  Ti  Ti77      1.0  0.50915  0.47993  0.85162  1.0000
  Ti  Ti78      1.0  0.73138  0.34894  0.08848  1.0000
  Ti  Ti79      1.0  0.13170  0.74612  0.67203  1.0000
  Ti  Ti80      1.0  0.88502  0.74347  0.36191  1.0000
  Ti  Ti81      1.0  0.53931  0.41272  0.63779  1.0000
  Ti  Ti82      1.0  0.24845  0.95814  0.85241  1.0000
  Ti  Ti83      1.0  0.76802  0.32001  0.31104  1.0000
  Ti  Ti84      1.0  0.48619  0.64701  0.69105  1.0000
  Ti  Ti85      1.0  0.26611  0.00013  0.32205  1.0000
  Ti  Ti86      1.0  0.43865  0.53135  0.66633  1.0000
  Ti  Ti87      1.0  0.98303  0.85523  0.86121  1.0000
  Ti  Ti88      1.0  0.75769  0.04582  0.29500  1.0000
  Ti  Ti89      1.0  0.69395  0.22962  0.03709  1.0000
  Ti  Ti90      1.0  0.67982  0.01286  0.51878  1.0000
  Ti  Ti91      1.0  0.75119  0.42933  0.29128  1.0000
  Ti  Ti92      1.0  0.88152  0.21939  0.73423  1.0000
  Ti  Ti93      1.0  0.89501  0.45632  0.59040  1.0000
  Ti  Ti94      1.0  0.21585  0.14950  0.89748  1.0000
  Ti  Ti95      1.0  0.45213  0.84257  0.48450  1.0000
  Ti  Ti96      1.0  0.77849  0.05472  0.84094  1.0000
  I   I1        1.0  0.07447  0.67391  0.43083  1.0000
  I   I2        1.0  0.36839  0.96572  0.31466  1.0000
  I   I3        1.0  0.37473  0.78622  0.15534  1.0000
  I   I4        1.0  0.63880  0.56053  0.28270  1.0000
  I   I5        1.0  0.13990  0.04172  0.92657  1.0000
  I   I6        1.0  0.93201  0.86472  0.09119  1.0000
  I   I7        1.0  0.26322  0.67682  0.49774  1.0000
  I   I8        1.0  0.63412  0.39906  0.73802  1.0000
  I   I9        1.0  0.05000  0.02052  0.55718  1.0000
  I   I10       1.0  0.81292  0.01078  0.07294  1.0000
  I   I11       1.0  0.41434  0.71609  0.45432  1.0000
  I   I12       1.0  0.84779  0.32171  0.62703  1.0000
  I   I13       1.0  0.44049  0.62025  0.34407  1.0000
  I   I14       1.0  0.25177  0.38986  0.15486  1.0000
  I   I15       1.0  0.51364  0.50079  0.90440  1.0000
  I   I16       1.0  0.89113  0.96265  0.15568  1.0000
  I   I17       1.0  0.85512  0.24831  0.76188  1.0000
  I   I18       1.0  0.34281  0.48101  0.54937  1.0000
  I   I19       1.0  0.27587  0.42558  0.18291  1.0000
  I   I20       1.0  0.41022  0.75301  0.53344  1.0000
  I   I21       1.0  0.24299  0.72220  0.53650  1.0000
  I   I22       1.0  0.57130  0.40711  0.66133  1.0000
  I   I23       1.0  0.77962  0.05860  0.26699  1.0000
  I   I24       1.0  0.35519  0.94009  0.78782  1.0000
  I   I25       1.0  0.09796  0.00068  0.98289  1.0000
  I   I26       1.0  0.42054  0.77862  0.21256  1.0000
  I   I27       1.0  0.01889  0.34633  0.11591  1.0000
  I   I28       1.0  0.23920  0.30416  0.97916  1.0000
  I   I29       1.0  0.70003  0.34859  0.10348  1.0000
  I   I30       1.0  0.73151  0.44934  0.22806  1.0000
  I   I31       1.0  0.88301  0.72295  0.41833  1.0000
  I   I32       1.0  0.51019  0.43492  0.67415  1.0000
  I   I33       1.0  0.15825  0.71123  0.68153  1.0000
  I   I34       1.0  0.99633  0.36493  0.02994  1.0000
  I   I35       1.0  0.48713  0.65080  0.75676  1.0000
  I   I36       1.0  0.57437  0.63484  0.87018  1.0000
  I   I37       1.0  0.23319  0.99519  0.33263  1.0000
  I   I38       1.0  0.84366  0.17718  0.11883  1.0000
  I   I39       1.0  0.27160  0.01937  0.36415  1.0000
  I   I40       1.0  0.33736  0.43884  0.11822  1.0000
  I   I41       1.0  0.23951  0.49778  0.85912  1.0000
  I   I42       1.0  0.91740  0.98839  0.19103  1.0000
  I   I43       1.0  0.97765  0.71341  0.01482  1.0000
  I   I44       1.0  0.70128  0.36405  0.38696  1.0000
  I   I45       1.0  0.79022  0.33400  0.29621  1.0000
  I   I46       1.0  0.44260  0.82294  0.53022  1.0000
  I   I47       1.0  0.03885  0.73174  0.43117  1.0000
  I   I48       1.0  0.24249  0.11463  0.90927  1.0000
  I   I49       1.0  0.38107  0.82899  0.18353  1.0000
  I   I50       1.0  0.70065  0.40926  0.58797  1.0000
  I   I51       1.0  0.41604  0.91921  0.35947  1.0000
  I   I52       1.0  0.85394  0.76957  0.35002  1.0000
  I   I53       1.0  0.62755  0.59961  0.35244  1.0000
  I   I54       1.0  0.96235  0.90007  0.07128  1.0000
  I   I55       1.0  0.40408  0.54072  0.70816  1.0000
  I   I56       1.0  0.16855  0.44749  0.51610  1.0000
  I   I57       1.0  0.48679  0.83220  0.50079  1.0000
  I   I58       1.0  0.84529  0.15859  0.01260  1.0000
  I   I59       1.0  0.85376  0.90157  0.76822  1.0000
  I   I60       1.0  0.51791  0.98568  0.41623  1.0000
  I   I61       1.0  0.44145  0.54611  0.21845  1.0000
  I   I62       1.0  0.48755  0.59550  0.31147  1.0000
  I   I63       1.0  0.63499  0.84078  0.88033  1.0000
  I   I64       1.0  0.88168  0.83776  0.84831  1.0000
  I   I65       1.0  0.92916  0.95582  0.08756  1.0000
  I   I66       1.0  0.26579  0.29068  0.05281  1.0000
  I   I67       1.0  0.52249  0.00314  0.33442  1.0000
  I   I68       1.0  0.60892  0.82872  0.80299  1.0000
  I   I69       1.0  0.30358  0.51898  0.65711  1.0000
  I   I70       1.0  0.35568  0.92903  0.88255  1.0000
  I   I71       1.0  0.38988  0.91982  0.23680  1.0000
  I   I72       1.0  0.36826  0.85724  0.29894  1.0000
  I   I73       1.0  0.09158  0.76667  0.35845  1.0000
  I   I74       1.0  0.27185  0.52117  0.71390  1.0000
  I   I75       1.0  0.30884  0.48425  0.78304  1.0000
  I   I76       1.0  0.51393  0.48855  0.79295  1.0000
  I   I77       1.0  0.51579  0.44655  0.87125  1.0000
  I   I78       1.0  0.85170  0.96538  0.99091  1.0000
  I   I79       1.0  0.90755  0.04803  0.54870  1.0000
  I   I80       1.0  0.82977  0.07104  0.70443  1.0000
  I   I81       1.0  0.87090  0.38817  0.91737  1.0000
  I   I82       1.0  0.27146  0.93439  0.81063  1.0000
  I   I83       1.0  0.68408  0.34110  0.32460  1.0000
  I   I84       1.0  0.46281  0.66056  0.63260  1.0000
  I   I85       1.0  0.27165  0.97228  0.36418  1.0000
  I   I86       1.0  0.21108  0.30651  0.06378  1.0000
  I   I87       1.0  0.79259  0.20987  0.06365  1.0000
  I   I88       1.0  0.82495  0.20904  0.99922  1.0000
  I   I89       1.0  0.53903  0.68350  0.81663  1.0000
  I   I90       1.0  0.20891  0.50270  0.76814  1.0000
  I   I91       1.0  0.76489  0.40092  0.24942  1.0000
  I   I92       1.0  0.88051  0.22773  0.66632  1.0000
  I   I93       1.0  0.38020  0.43404  0.16730  1.0000
  I   I94       1.0  0.22200  0.17965  0.89331  1.0000
  I   I95       1.0  0.03874  0.62026  0.42518  1.0000
  I   I96       1.0  0.26499  0.39280  0.58178  1.0000
  I   I97       1.0  0.99281  0.00905  0.32029  1.0000
  I   I98       1.0  0.82212  0.11759  0.72203  1.0000
  I   I99       1.0  0.65091  0.41764  0.54101  1.0000
  I   I100      1.0  0.37927  0.80036  0.93670  1.0000
  I   I101      1.0  0.72754  0.05544  0.26340  1.0000
  I   I102      1.0  0.85658  0.36872  0.60279  1.0000
  I   I103      1.0  0.47391  0.52417  0.62710  1.0000
  I   I104      1.0  0.96180  0.67829  0.68293  1.0000
  I   I105      1.0  0.53985  0.75114  0.12517  1.0000
  I   I106      1.0  0.47081  0.11572  0.86011  1.0000
  I   I107      1.0  0.81617  0.23048  0.08673  1.0000
  I   I108      1.0  0.43057  0.16176  0.88430  1.0000
  I   I109      1.0  0.54359  0.45268  0.97482  1.0000
  I   I110      1.0  0.44526  0.53157  0.30610  1.0000
  I   I111      1.0  0.66979  0.82647  0.80534  1.0000
  I   I112      1.0  0.29912  0.43140  0.48543  1.0000
  I   I113      1.0  0.43225  0.26942  0.93903  1.0000
  I   I114      1.0  0.70133  0.02662  0.55557  1.0000
  I   I115      1.0  0.82249  0.87468  0.65258  1.0000
  I   I116      1.0  0.80895  0.84743  0.58513  1.0000
  I   I117      1.0  0.35306  0.26055  0.96867  1.0000
  I   I118      1.0  0.77850  0.03492  0.89983  1.0000
  I   I119      1.0  0.86046  0.81122  0.61669  1.0000
  I   I120      1.0  0.03819  0.69809  0.34916  1.0000
  I   I121      1.0  0.10137  0.00864  0.10864  1.0000
  I   I122      1.0  0.11508  0.95845  0.94361  1.0000
  I   I123      1.0  0.38914  0.81364  0.07894  1.0000
  I   I124      1.0  0.66291  0.46484  0.27591  1.0000
  I   I125      1.0  0.91763  0.55181  0.74793  1.0000
  I   I126      1.0  0.74375  0.34460  0.14731  1.0000
  I   I127      1.0  0.90188  0.00163  0.58548  1.0000
  I   I128      1.0  0.36930  0.74616  0.91669  1.0000
  I   I129      1.0  0.41630  0.87156  0.37791  1.0000
  I   I130      1.0  0.51025  0.66483  0.57480  1.0000
  I   I131      1.0  0.26740  0.96898  0.88847  1.0000
  I   I132      1.0  0.96147  0.36700  0.12456  1.0000
  I   I133      1.0  0.78693  0.19864  0.96221  1.0000
  I   I134      1.0  0.64606  0.61077  0.60902  1.0000
  I   I135      1.0  0.96756  0.11493  0.23629  1.0000
  I   I136      1.0  0.23805  0.71830  0.84082  1.0000
  I   I137      1.0  0.07683  0.33748  0.38979  1.0000
  I   I138      1.0  0.68152  0.21396  0.09006  1.0000
  I   I139      1.0  0.75036  0.41484  0.35545  1.0000
  I   I140      1.0  0.92333  0.16237  0.28181  1.0000
  I   I141      1.0  0.92397  0.42462  0.57336  1.0000
  I   I142      1.0  0.23202  0.14669  0.98397  1.0000
  I   I143      1.0  0.02571  0.95874  0.29673  1.0000
  I   I144      1.0  0.25844  0.35750  0.65594  1.0000
  I   I145      1.0  0.81358  0.09920  0.80118  1.0000
  I   I146      1.0  0.71091  0.36063  0.58824  1.0000
  I   I147      1.0  0.05562  0.97733  0.35985  1.0000
  I   I148      1.0  0.13454  0.31548  0.35610  1.0000
  I   I149      1.0  0.86297  0.32643  0.52554  1.0000
  I   I150      1.0  0.14448  0.08544  0.92259  1.0000
  I   I151      1.0  0.91863  0.72423  0.72375  1.0000
  I   I152      1.0  0.23720  0.69368  0.44329  1.0000
  I   I153      1.0  0.03933  0.04395  0.64856  1.0000
  I   I154      1.0  0.35750  0.74491  0.50129  1.0000
  I   I155      1.0  0.36678  0.76256  0.42764  1.0000
  I   I156      1.0  0.53658  0.94024  0.31319  1.0000
  I   I157      1.0  0.55118  0.45666  0.85510  1.0000
  I   I158      1.0  0.22844  0.44907  0.20565  1.0000
  I   I159      1.0  0.57263  0.25297  0.67339  1.0000
  I   I160      1.0  0.29626  0.45461  0.39322  1.0000
  I   I161      1.0  0.65418  0.03931  0.49078  1.0000
  I   I162      1.0  0.34561  0.42120  0.49208  1.0000
  I   I163      1.0  0.50980  0.01574  0.25021  1.0000
  I   I164      1.0  0.02606  0.57666  0.40341  1.0000
  I   I165      1.0  0.17593  0.50310  0.50228  1.0000
  I   I166      1.0  0.75458  0.07762  0.80181  1.0000
  I   I167      1.0  0.52725  0.42585  0.58470  1.0000
  I   I168      1.0  0.00331  0.22863  0.87071  1.0000
  I   I169      1.0  0.08116  0.97079  0.04196  1.0000
  I   I170      1.0  0.06243  0.95814  0.96762  1.0000
  I   I171      1.0  0.12816  0.74283  0.27619  1.0000
  I   I172      1.0  0.86212  0.55024  0.77369  1.0000
  I   I173      1.0  0.57523  0.71479  0.35957  1.0000
  I   I174      1.0  0.67731  0.48871  0.22267  1.0000
  I   I175      1.0  0.89351  0.01575  0.09812  1.0000
  I   I176      1.0  0.85143  0.43022  0.98418  1.0000
  I   I177      1.0  0.13534  0.76783  0.71210  1.0000
  I   I178      1.0  0.21533  0.98706  0.83310  1.0000
  I   I179      1.0  0.71744  0.36018  0.26356  1.0000
  I   I180      1.0  0.20997  0.01138  0.26463  1.0000
  I   I181      1.0  0.42137  0.11672  0.82143  1.0000
  I   I182      1.0  0.45821  0.54044  0.52916  1.0000
  I   I183      1.0  0.02071  0.84640  0.85648  1.0000
  I   I184      1.0  0.78182  0.01358  0.32919  1.0000
  I   I185      1.0  0.70350  0.25163  0.07005  1.0000
  I   I186      1.0  0.18803  0.72474  0.82216  1.0000
  I   I187      1.0  0.90684  0.22381  0.76292  1.0000
  I   I188      1.0  0.37458  0.38617  0.15021  1.0000
  I   I189      1.0  0.98128  0.83071  0.81928  1.0000
  I   I190      1.0  0.07911  0.56492  0.39120  1.0000
  I   I191      1.0  0.73480  0.00101  0.64844  1.0000
  I   I192      1.0  0.01502  0.00538  0.39890  1.0000
  I   I193      1.0  0.76170  0.32481  0.05750  1.0000
  I   I194      1.0  0.65868  0.78637  0.83693  1.0000
  I   I195      1.0  0.01845  0.96372  0.39279  1.0000
  I   I196      1.0  0.41539  0.75677  0.87457  1.0000
  I   I197      1.0  0.92660  0.71569  0.99511  1.0000
  I   I198      1.0  0.12966  0.08664  0.01528  1.0000
  I   I199      1.0  0.90093  0.42152  0.94712  1.0000
  I   I200      1.0  0.64171  0.39494  0.65102  1.0000
  I   I201      1.0  0.10340  0.02489  0.58347  1.0000
  I   I202      1.0  0.89035  0.89483  0.84799  1.0000
  I   I203      1.0  0.29168  0.53054  0.81517  1.0000
  I   I204      1.0  0.41769  0.12691  0.92752  1.0000
  I   I205      1.0  0.44882  0.62111  0.24689  1.0000
  I   I206      1.0  0.41563  0.80485  0.82677  1.0000
  I   I207      1.0  0.49203  0.47654  0.95267  1.0000
  I   I208      1.0  0.90417  0.87736  0.77723  1.0000
  I   I209      1.0  0.66745  0.01979  0.58904  1.0000
  I   I210      1.0  0.10609  0.74129  0.64182  1.0000
  I   I211      1.0  0.40393  0.90243  0.81985  1.0000
  I   I212      1.0  0.23937  0.44134  0.09857  1.0000
  I   I213      1.0  0.35764  0.49539  0.76923  1.0000
  I   I214      1.0  0.31181  0.35789  0.61648  1.0000
  I   I215      1.0  0.41187  0.95498  0.26458  1.0000
  I   I216      1.0  0.89708  0.46989  0.53132  1.0000
  I   I217      1.0  0.05926  0.98983  0.88001  1.0000
  I   I218      1.0  0.40710  0.75863  0.03535  1.0000
  I   I219      1.0  0.12915  0.00339  0.18877  1.0000
  I   I220      1.0  0.47682  0.48484  0.83903  1.0000
  I   I221      1.0  0.60508  0.72811  0.27930  1.0000
  I   I222      1.0  0.86559  0.59458  0.76833  1.0000
  I   I223      1.0  0.84015  0.95256  0.08122  1.0000
  I   I224      1.0  0.85683  0.45538  0.90219  1.0000
  I   I225      1.0  0.95663  0.99436  0.55420  1.0000
  I   I226      1.0  0.24556  0.73933  0.43486  1.0000
  I   I227      1.0  0.98850  0.40182  0.09062  1.0000
  I   I228      1.0  0.50841  0.66165  0.67164  1.0000
  I   I229      1.0  0.94214  0.74496  0.92276  1.0000
  I   I230      1.0  0.63016  0.60087  0.70509  1.0000
  I   I231      1.0  0.86461  0.20401  0.05224  1.0000
  I   I232      1.0  0.33442  0.78655  0.91230  1.0000
  I   I233      1.0  0.56574  0.67914  0.15069  1.0000
  I   I234      1.0  0.70357  0.98308  0.68198  1.0000
  I   I235      1.0  0.35966  0.71738  0.57549  1.0000
  I   I236      1.0  0.88880  0.48439  0.62696  1.0000
  I   I237      1.0  0.71555  0.45736  0.32037  1.0000
  I   I238      1.0  0.44979  0.82538  0.43250  1.0000
  I   I239      1.0  0.79558  0.02218  0.80616  1.0000
  I   I240      1.0  0.21377  0.14443  0.83286  1.0000
  I   I241      1.0  0.86937  0.07961  0.73570  1.0000
  I   I242      1.0  0.70159  0.38165  0.49256  1.0000
  I   I243      1.0  0.34334  0.28121  0.06067  1.0000
  I   I244      1.0  0.74613  0.05919  0.35442  1.0000
  I   I245      1.0  0.58442  0.59111  0.31963  1.0000
  I   I246      1.0  0.17867  0.04678  0.99437  1.0000
  I   I247      1.0  0.42331  0.54818  0.61361  1.0000
  I   I248      1.0  0.11772  0.50544  0.51715  1.0000
  I   I249      1.0  0.10040  0.99445  0.64732  1.0000
  I   I250      1.0  0.88536  0.93334  0.74840  1.0000
  I   I251      1.0  0.36922  0.78590  0.49516  1.0000
  I   I252      1.0  0.51938  0.96469  0.23103  1.0000
  I   I253      1.0  0.46987  0.56204  0.27448  1.0000
  I   I254      1.0  0.36696  0.81534  0.84089  1.0000
  I   I255      1.0  0.59174  0.26619  0.58132  1.0000
  I   I256      1.0  0.42517  0.30826  0.84908  1.0000
  I   I257      1.0  0.24554  0.02893  0.27839  1.0000
  I   I258      1.0  0.33793  0.43833  0.56979  1.0000
  I   I259      1.0  0.82012  0.82896  0.68974  1.0000
  I   I260      1.0  0.05397  0.60489  0.31467  1.0000
  I   I261      1.0  0.16475  0.48563  0.58441  1.0000
  I   I262      1.0  0.28520  0.32608  0.57158  1.0000
  I   I263      1.0  0.71436  0.51340  0.08095  1.0000
  I   I264      1.0  0.52384  0.60761  0.58508  1.0000
  I   I265      1.0  0.07079  0.03134  0.89092  1.0000
  I   I266      1.0  0.34298  0.49892  0.85354  1.0000
  I   I267      1.0  0.09526  0.97025  0.15415  1.0000
  I   I268      1.0  0.91274  0.13100  0.23728  1.0000
  I   I269      1.0  0.71965  0.38333  0.06994  1.0000
  I   I270      1.0  0.22340  0.35428  0.04027  1.0000
  I   I271      1.0  0.87851  0.98051  0.04432  1.0000
  I   I272      1.0  0.54228  0.37975  0.63638  1.0000
  I   I273      1.0  0.92108  0.03369  0.64265  1.0000
  I   I274      1.0  0.55643  0.70684  0.22335  1.0000
  I   I275      1.0  0.06132  0.76901  0.27392  1.0000
  I   I276      1.0  0.45372  0.64652  0.71639  1.0000
  I   I277      1.0  0.23012  0.94229  0.88156  1.0000
  I   I278      1.0  0.61127  0.65689  0.70407  1.0000
  I   I279      1.0  0.37139  0.42538  0.05408  1.0000
  I   I280      1.0  0.12200  0.28310  0.41561  1.0000
  I   I281      1.0  0.51443  0.73178  0.16557  1.0000
  I   I282      1.0  0.23204  0.66842  0.81696  1.0000
  I   I283      1.0  0.33895  0.76364  0.61319  1.0000
  I   I284      1.0  0.95283  0.23093  0.85387  1.0000
  I   I285      1.0  0.96433  0.84430  0.90240  1.0000
  I   I286      1.0  0.44446  0.87753  0.49910  1.0000
  I   I287      1.0  0.35777  0.84417  0.38354  1.0000
  I   I288      1.0  0.28777  0.11772  0.92118  1.0000
  I   I289      1.0  0.30702  0.78406  0.54922  1.0000
  I   I290      1.0  0.69230  0.03499  0.66148  1.0000
  I   I291      1.0  0.45535  0.88248  0.31435  1.0000
  I   I292      1.0  0.09479  0.31486  0.30125  1.0000
  I   I293      1.0  0.64705  0.56253  0.40202  1.0000
  I   I294      1.0  0.93463  0.88561  0.99135  1.0000
  I   I295      1.0  0.45328  0.54082  0.71871  1.0000
  I   I296      1.0  0.67526  0.33927  0.70236  1.0000
  I   I297      1.0  0.04170  0.07151  0.51407  1.0000
  I   I298      1.0  0.92333  0.75127  0.04023  1.0000
  I   I299      1.0  0.84399  0.87469  0.82412  1.0000
  I   I300      1.0  0.86178  0.45188  0.59545  1.0000
  I   I301      1.0  0.61814  0.20890  0.58867  1.0000
  I   I302      1.0  0.41929  0.58352  0.33564  1.0000
  I   I303      1.0  0.44005  0.25194  0.84693  1.0000
  I   I304      1.0  0.29524  0.48154  0.49966  1.0000
  I   I305      1.0  0.88780  0.83990  0.75757  1.0000
  I   I306      1.0  0.48756  0.49597  0.53852  1.0000
  I   I307      1.0  0.26225  0.95711  0.27004  1.0000
  I   I308      1.0  0.22389  0.46407  0.84670  1.0000
  I   I309      1.0  0.29315  0.70112  0.46762  1.0000
  I   I310      1.0  0.42075  0.75972  0.12717  1.0000
  I   I311      1.0  0.69180  0.57040  0.05470  1.0000
  I   I312      1.0  0.08824  0.69315  0.35332  1.0000
  I   I313      1.0  0.07172  0.02193  0.21031  1.0000
  I   I314      1.0  0.11333  0.98178  0.86898  1.0000
  I   I315      1.0  0.35835  0.78458  0.06232  1.0000
  I   I316      1.0  0.87016  0.57617  0.67366  1.0000
  I   I317      1.0  0.92250  0.17688  0.18992  1.0000
  I   I318      1.0  0.55562  0.77000  0.32396  1.0000
  I   I319      1.0  0.14886  0.74765  0.60534  1.0000
  I   I320      1.0  0.37381  0.76666  0.83484  1.0000
  I   I321      1.0  0.96112  0.72792  0.69989  1.0000
  I   I322      1.0  0.54567  0.68148  0.93390  1.0000
  I   I323      1.0  0.74234  0.31057  0.31939  1.0000
  I   I324      1.0  0.50707  0.61004  0.66821  1.0000
  I   I325      1.0  0.24681  0.99516  0.20450  1.0000
  I   I326      1.0  0.43543  0.50100  0.55425  1.0000
  I   I327      1.0  0.78116  0.29395  0.26303  1.0000
  I   I328      1.0  0.79179  0.16589  0.02633  1.0000
  I   I329      1.0  0.67706  0.24365  0.98119  1.0000
  I   I330      1.0  0.68698  0.99048  0.46681  1.0000
  I   I331      1.0  0.96009  0.88065  0.81060  1.0000
  I   I332      1.0  0.70251  0.98207  0.56631  1.0000
  I   I333      1.0  0.59320  0.67518  0.87262  1.0000
  I   I334      1.0  0.18864  0.14602  0.92178  1.0000
  I   I335      1.0  0.34918  0.31566  0.98363  1.0000
  I   I336      1.0  0.79278  0.07478  0.86453  1.0000
  I   I337      1.0  0.42981  0.80237  0.13002  1.0000
  I   I338      1.0  0.17775  0.50840  0.86277  1.0000
  I   I339      1.0  0.37957  0.91677  0.32191  1.0000
  I   I340      1.0  0.91152  0.75203  0.36272  1.0000
  I   I341      1.0  0.97601  0.24234  0.96003  1.0000
  I   I342      1.0  0.90754  0.92227  0.06793  1.0000
  I   I343      1.0  0.97155  0.69832  0.77647  1.0000
  I   I344      1.0  0.61379  0.36492  0.68974  1.0000
  I   I345      1.0  0.07122  0.05711  0.60614  1.0000
  I   I346      1.0  0.35369  0.89141  0.83879  1.0000
  I   I347      1.0  0.84199  0.94811  0.81514  1.0000
  I   I348      1.0  0.49416  0.98143  0.31321  1.0000
  I   I349      1.0  0.62223  0.24526  0.65115  1.0000
  I   I350      1.0  0.41800  0.59877  0.24575  1.0000
  I   I351      1.0  0.40932  0.77522  0.76496  1.0000
  I   I352      1.0  0.34177  0.46081  0.43984  1.0000
  I   I353      1.0  0.46799  0.28557  0.89591  1.0000
  I   I354      1.0  0.45772  0.49531  0.67383  1.0000
  I   I355      1.0  0.55812  0.97328  0.26656  1.0000
  I   I356      1.0  0.30438  0.31156  0.00299  1.0000
  I   I357      1.0  0.32390  0.46391  0.70211  1.0000
  I   I358      1.0  0.90020  0.31174  0.62160  1.0000
  I   I359      1.0  0.73494  0.52671  0.99395  1.0000
  I   I360      1.0  0.32175  0.84139  0.31654  1.0000
  I   I361      1.0  0.08578  0.79369  0.27487  1.0000
  I   I362      1.0  0.04630  0.00928  0.96505  1.0000
  I   I363      1.0  0.31369  0.53261  0.73882  1.0000
  I   I364      1.0  0.70654  0.42314  0.25816  1.0000
  I   I365      1.0  0.61607  0.54036  0.35259  1.0000
  I   I366      1.0  0.61099  0.73845  0.37482  1.0000
  I   I367      1.0  0.10083  0.75610  0.71586  1.0000
  I   I368      1.0  0.89762  0.71493  0.32271  1.0000
  I   I369      1.0  0.41794  0.87336  0.27197  1.0000
  I   I370      1.0  0.09029  0.03087  0.49257  1.0000
  I   I371      1.0  0.78804  0.29867  0.36177  1.0000
  I   I372      1.0  0.96165  0.27589  0.86150  1.0000
  I   I373      1.0  0.29183  0.98929  0.26413  1.0000
  I   I374      1.0  0.59313  0.64291  0.61206  1.0000
  I   I375      1.0  0.74352  0.35521  0.33933  1.0000
  I   I376      1.0  0.75716  0.52717  0.07689  1.0000
  I   I377      1.0  0.72501  0.19720  0.04011  1.0000
  I   I378      1.0  0.22758  0.70494  0.74431  1.0000
  I   I379      1.0  0.76966  0.44596  0.30678  1.0000
  I   I380      1.0  0.86809  0.19369  0.71770  1.0000
  I   I381      1.0  0.55681  0.95064  0.39050  1.0000
  I   I382      1.0  0.25523  0.14873  0.85874  1.0000
  I   I383      1.0  0.31441  0.73295  0.53930  1.0000
  I   I384      1.0  0.36784  0.80391  0.28973  1.0000
