data_image0
_chemical_formula_structural       Ti96I384
_chemical_formula_sum              "Ti96 I384"
_cell_length_a       79.3507
_cell_length_b       79.0027
_cell_length_c       38.7394
_cell_angle_alpha    88.7757
_cell_angle_beta     88.7757
_cell_angle_gamma    62.1586

_space_group_name_H-M_alt    "P 1"
_space_group_IT_number       1

loop_
  _space_group_symop_operation_xyz
  'x, y, z'

loop_
  _atom_site_type_symbol
  _atom_site_label
  _atom_site_symmetry_multiplicity
  _atom_site_fract_x
  _atom_site_fract_y
  _atom_site_fract_z
  _atom_site_occupancy
  Ti  Ti1       1.0  0.55419  0.71924  0.16806  1.0000
  Ti  Ti2       1.0  0.61987  0.91458  0.52024  1.0000
  Ti  Ti3       1.0  0.05734  0.01468  0.37535  1.0000
  Ti  Ti4       1.0  0.43354  0.76393  0.06348  1.0000
  Ti  Ti5       1.0  0.92750  0.81545  0.75813  1.0000
  Ti  Ti6       1.0  0.17030  0.92061  0.40417  1.0000
  Ti  Ti7       1.0  0.43988  0.10628  0.81743  1.0000
  Ti  Ti8       1.0  0.71361  0.30420  0.59858  1.0000
  Ti  Ti9       1.0  0.09220  0.05112  0.70719  1.0000
  Ti  Ti10      1.0  0.91671  0.38197  0.20931  1.0000
  Ti  Ti11      1.0  0.08068  0.97156  0.73111  1.0000
  Ti  Ti12      1.0  0.24094  0.96115  0.10937  1.0000
  Ti  Ti13      1.0  0.48125  0.64660  0.32227  1.0000
  Ti  Ti14      1.0  0.45956  0.72486  0.09659  1.0000
  Ti  Ti15      1.0  0.84564  0.15307  0.03749  1.0000
  Ti  Ti16      1.0  0.88110  0.36695  0.55293  1.0000
  Ti  Ti17      1.0  0.25503  0.15497  0.43921  1.0000
  Ti  Ti18      1.0  0.62090  0.24972  0.51428  1.0000
  Ti  Ti19      1.0  0.22260  0.02374  0.14290  1.0000
  Ti  Ti20      1.0  0.93627  0.48934  0.66505  1.0000
  Ti  Ti21      1.0  0.68407  0.33860  0.69786  1.0000
  Ti  Ti22      1.0  0.55385  0.30400  0.13081  1.0000
  Ti  Ti23      1.0  0.40662  0.27325  0.43018  1.0000
  Ti  Ti24      1.0  0.67448  0.60656  0.38685  1.0000
  Ti  Ti25      1.0  0.87664  0.13698  0.76779  1.0000
  Ti  Ti26      1.0  0.15133  0.83400  0.71350  1.0000
  Ti  Ti27      1.0  0.81588  0.82146  0.72950  1.0000
  Ti  Ti28      1.0  0.35721  0.04706  0.18769  1.0000
  Ti  Ti29      1.0  0.05755  0.73051  0.66858  1.0000
  Ti  Ti30      1.0  0.30081  0.62708  0.59937  1.0000
  Ti  Ti31      1.0  0.91490  0.87044  0.52620  1.0000
  Ti  Ti32      1.0  0.19574  0.09122  0.70146  1.0000
  Ti  Ti33      1.0  0.70249  0.29757  0.07877  1.0000
  Ti  Ti34      1.0  0.76380  0.58481  0.73356  1.0000
  Ti  Ti35      1.0  0.56895  0.23973  0.74209  1.0000
  Ti  Ti36      1.0  0.94134  0.98502  0.89067  1.0000
  Ti  Ti37      1.0  0.46527  0.93229  0.44076  1.0000
  Ti  Ti38      1.0  0.55972  0.56347  0.62758  1.0000
  Ti  Ti39      1.0  0.93593  0.38723  0.27501  1.0000
  Ti  Ti40      1.0  0.63237  0.86429  0.06058  1.0000
  Ti  Ti41      1.0  0.78206  0.34352  0.16085  1.0000
  Ti  Ti42      1.0  0.26282  0.41507  0.11794  1.0000
  Ti  Ti43      1.0  0.45117  0.57667  0.95807  1.0000
  Ti  Ti44      1.0  0.12744  0.40753  0.41973  1.0000
  Ti  Ti45      1.0  0.93888  0.14889  0.53392  1.0000
  Ti  Ti46      1.0  0.75024  0.75089  0.99528  1.0000
  Ti  Ti47      1.0  0.45246  0.38366  0.63469  1.0000
  Ti  Ti48      1.0  0.67567  0.73778  0.37942  1.0000
  Ti  Ti49      1.0  0.76986  0.89694  0.10106  1.0000
  Ti  Ti50      1.0  0.02727  0.28758  0.00975  1.0000
  Ti  Ti51      1.0  0.62895  0.96190  0.52239  1.0000
  Ti  Ti52      1.0  0.35407  0.67394  0.21321  1.0000
  Ti  Ti53      1.0  0.68585  0.03949  0.27713  1.0000
  Ti  Ti54      1.0  0.73236  0.90720  0.97382  1.0000
  Ti  Ti55      1.0  0.75533  0.63660  0.27197  1.0000
  Ti  Ti56      1.0  0.72917  0.99976  0.53240  1.0000
  Ti  Ti57      1.0  0.10688  0.07350  0.67246  1.0000
  Ti  Ti58      1.0  0.80256  0.03099  0.41876  1.0000
  Ti  Ti59      1.0  0.90702  0.36938  0.60518  1.0000
  Ti  Ti60      1.0  0.09161  0.19155  0.73977  1.0000
  Ti  Ti61      1.0  0.50224  0.18038  0.42571  1.0000
  Ti  Ti62      1.0  0.52787  0.64829  0.33847  1.0000
  Ti  Ti63      1.0  0.02448  0.81068  0.84884  1.0000
  Ti  Ti64      1.0  0.64847  0.20280  0.52873  1.0000
  Ti  Ti65      1.0  0.92560  0.39574  0.99706  1.0000
  Ti  Ti66      1.0  0.29840  0.93133  0.32781  1.0000
  Ti  Ti67      1.0  0.34126  0.72540  0.77226  1.0000
  Ti  Ti68      1.0  0.81979  0.73777  0.65354  1.0000
  Ti  Ti69      1.0  0.20018  0.82830  0.70524  1.0000
  Ti  Ti70      1.0  0.28995  0.57657  0.87884  1.0000
  Ti  Ti71      1.0  0.62880  0.55976  0.10720  1.0000
  Ti  Ti72      1.0  0.49425  0.34326  0.69846  1.0000
  Ti  Ti73      1.0  0.45954  0.51895  0.47807  1.0000
  Ti  Ti74      1.0  0.83454  0.12344  0.82666  1.0000
  Ti  Ti75      1.0  0.79251  0.80499  0.27265  1.0000
  Ti  Ti76      1.0  0.23138  0.94058  0.76974  1.0000
  Ti  Ti77      1.0  0.85661  0.13591  0.11358  1.0000
  Ti  Ti78      1.0  0.06487  0.72657  0.58943  1.0000
  Ti  Ti79      1.0  0.68033  0.07892  0.69339  1.0000
  Ti  Ti80      1.0  0.92298  0.66596  0.28564  1.0000
  Ti  Ti81      1.0  0.40438  0.29173  0.32527  1.0000
  Ti  Ti82      1.0  0.66159  0.54685  0.87649  1.0000
  Ti  Ti83      1.0  0.88559  0.19029  0.56610  1.0000
  Ti  Ti84      1.0  0.91861  0.99303  0.99028  1.0000
  Ti  Ti85      1.0  0.46930  0.95801  0.48488  1.0000
  Ti  Ti86      1.0  0.42876  0.12905  0.72711  1.0000
  Ti  Ti87      1.0  0.52111  0.81190  0.67442  1.0000
  Ti  Ti88      1.0  0.70682  0.23615  0.90387  1.0000
  Ti  Ti89      1.0  0.93669  0.26385  0.98741  1.0000
  Ti  Ti90      1.0  0.30087  0.15455  0.46084  1.0000
  Ti  Ti91      1.0  0.53625  0.40523  0.05265  1.0000
  Ti  Ti92      1.0  0.63906  0.62019  0.85282  1.0000
  Ti  Ti93      1.0  0.31713  0.94134  0.93998  1.0000
  Ti  Ti94      1.0  0.63939  0.72772  0.37866  1.0000
  Ti  Ti95      1.0  0.14454  0.90045  0.07838  1.0000
  Ti  Ti96      1.0  0.22674  0.21802  0.94149  1.0000
  I   I1        1.0  0.41769  0.39109  0.64623  1.0000
  I   I2        1.0  0.61449  0.99288  0.48183  1.0000
  I   I3        1.0  0.76708  0.87651  0.15237  1.0000
  I   I4        1.0  0.68759  0.04894  0.34351  1.0000
  I   I5        1.0  0.17751  0.89982  0.34408  1.0000
  I   I6        1.0  0.74784  0.86970  0.97465  1.0000
  I   I7        1.0  0.67286  0.32050  0.74439  1.0000
  I   I8        1.0  0.72722  0.99937  0.59806  1.0000
  I   I9        1.0  0.08945  0.07509  0.61363  1.0000
  I   I10       1.0  0.63687  0.87424  0.12464  1.0000
  I   I11       1.0  0.05229  0.97564  0.77122  1.0000
  I   I12       1.0  0.89944  0.80625  0.77017  1.0000
  I   I13       1.0  0.53675  0.67036  0.36967  1.0000
  I   I14       1.0  0.99405  0.84110  0.85470  1.0000
  I   I15       1.0  0.86856  0.13366  0.98369  1.0000
  I   I16       1.0  0.66331  0.85759  0.02582  1.0000
  I   I17       1.0  0.30839  0.93986  0.38655  1.0000
  I   I18       1.0  0.63893  0.17506  0.52213  1.0000
  I   I19       1.0  0.03921  0.83042  0.80362  1.0000
  I   I20       1.0  0.06239  0.00383  0.69827  1.0000
  I   I21       1.0  0.75463  0.28022  0.59387  1.0000
  I   I22       1.0  0.38416  0.32492  0.29091  1.0000
  I   I23       1.0  0.70349  0.27092  0.89109  1.0000
  I   I24       1.0  0.27159  0.55728  0.86617  1.0000
  I   I25       1.0  0.90227  0.13208  0.81761  1.0000
  I   I26       1.0  0.81948  0.78551  0.22598  1.0000
  I   I27       1.0  0.54964  0.27606  0.72900  1.0000
  I   I28       1.0  0.36509  0.03009  0.12920  1.0000
  I   I29       1.0  0.03845  0.72010  0.55627  1.0000
  I   I30       1.0  0.28229  0.65501  0.55344  1.0000
  I   I31       1.0  0.93978  0.62734  0.28699  1.0000
  I   I32       1.0  0.39115  0.25392  0.45639  1.0000
  I   I33       1.0  0.70885  0.04295  0.66432  1.0000
  I   I34       1.0  0.60446  0.21121  0.74434  1.0000
  I   I35       1.0  0.93325  0.97190  0.04440  1.0000
  I   I36       1.0  0.75068  0.56429  0.70652  1.0000
  I   I37       1.0  0.44729  0.92886  0.38314  1.0000
  I   I38       1.0  0.90078  0.39108  0.15131  1.0000
  I   I39       1.0  0.43460  0.97475  0.46258  1.0000
  I   I40       1.0  0.11342  0.44262  0.39728  1.0000
  I   I41       1.0  0.99020  0.30392  0.02175  1.0000
  I   I42       1.0  0.60873  0.87777  0.01284  1.0000
  I   I43       1.0  0.77573  0.02291  0.39853  1.0000
  I   I44       1.0  0.95996  0.11364  0.54715  1.0000
  I   I45       1.0  0.89020  0.20943  0.62018  1.0000
  I   I46       1.0  0.16448  0.91696  0.09284  1.0000
  I   I47       1.0  0.43699  0.42284  0.66072  1.0000
  I   I48       1.0  0.67433  0.71027  0.33647  1.0000
  I   I49       1.0  0.78547  0.87108  0.05336  1.0000
  I   I50       1.0  0.63681  0.93027  0.56847  1.0000
  I   I51       1.0  0.61959  0.88981  0.47360  1.0000
  I   I52       1.0  0.89090  0.68887  0.24914  1.0000
  I   I53       1.0  0.71316  0.04001  0.23900  1.0000
  I   I54       1.0  0.76214  0.91268  0.98176  1.0000
  I   I55       1.0  0.40937  0.10578  0.77700  1.0000
  I   I56       1.0  0.71164  0.29902  0.67158  1.0000
  I   I57       1.0  0.11464  0.93460  0.06791  1.0000
  I   I58       1.0  0.97529  0.36524  0.30447  1.0000
  I   I59       1.0  0.91861  0.35961  0.54138  1.0000
  I   I60       1.0  0.07687  0.18596  0.80223  1.0000
  I   I61       1.0  0.55064  0.61627  0.37088  1.0000
  I   I62       1.0  0.47432  0.62684  0.36635  1.0000
  I   I63       1.0  0.93911  0.47829  0.59992  1.0000
  I   I64       1.0  0.88037  0.38133  0.66664  1.0000
  I   I65       1.0  0.63381  0.83248  0.07178  1.0000
  I   I66       1.0  0.32523  0.07774  0.20905  1.0000
  I   I67       1.0  0.21213  0.99767  0.17759  1.0000
  I   I68       1.0  0.97226  0.46823  0.67972  1.0000
  I   I69       1.0  0.13608  0.81102  0.71544  1.0000
  I   I70       1.0  0.27739  0.60880  0.84678  1.0000
  I   I71       1.0  0.43544  0.27284  0.46433  1.0000
  I   I72       1.0  0.52451  0.31716  0.67139  1.0000
  I   I73       1.0  0.82351  0.84982  0.75099  1.0000
  I   I74       1.0  0.15528  0.84215  0.65224  1.0000
  I   I75       1.0  0.23758  0.81091  0.72147  1.0000
  I   I76       1.0  0.83483  0.12130  0.13468  1.0000
  I   I77       1.0  0.87493  0.14996  0.07263  1.0000
  I   I78       1.0  0.95111  0.83813  0.53290  1.0000
  I   I79       1.0  0.68944  0.29921  0.01490  1.0000
  I   I80       1.0  0.55585  0.68453  0.15651  1.0000
  I   I81       1.0  0.16798  0.08271  0.69898  1.0000
  I   I82       1.0  0.66102  0.51674  0.84935  1.0000
  I   I83       1.0  0.89533  0.20327  0.51270  1.0000
  I   I84       1.0  0.90729  0.01181  0.91978  1.0000
  I   I85       1.0  0.46444  0.91391  0.49299  1.0000
  I   I86       1.0  0.39069  0.04376  0.18806  1.0000
  I   I87       1.0  0.92793  0.42093  0.30535  1.0000
  I   I88       1.0  0.95285  0.39365  0.21792  1.0000
  I   I89       1.0  0.74704  0.61951  0.70882  1.0000
  I   I90       1.0  0.04712  0.25135  0.02587  1.0000
  I   I91       1.0  0.50486  0.43541  0.04696  1.0000
  I   I92       1.0  0.63716  0.61485  0.91747  1.0000
  I   I93       1.0  0.11521  0.41224  0.48408  1.0000
  I   I94       1.0  0.64563  0.75645  0.33170  1.0000
  I   I95       1.0  0.74704  0.74404  0.06004  1.0000
  I   I96       1.0  0.58104  0.31406  0.13792  1.0000
  I   I97       1.0  0.02182  0.01107  0.38855  1.0000
  I   I98       1.0  0.53549  0.73722  0.22272  1.0000
  I   I99       1.0  0.61822  0.89357  0.57578  1.0000
  I   I100      1.0  0.49301  0.70245  0.07435  1.0000
  I   I101      1.0  0.72689  0.22855  0.84763  1.0000
  I   I102      1.0  0.92964  0.82233  0.82571  1.0000
  I   I103      1.0  0.44752  0.14630  0.69373  1.0000
  I   I104      1.0  0.71968  0.66468  0.27493  1.0000
  I   I105      1.0  0.13518  0.05710  0.71874  1.0000
  I   I106      1.0  0.22392  0.95893  0.05304  1.0000
  I   I107      1.0  0.89451  0.36734  0.22470  1.0000
  I   I108      1.0  0.24067  0.93123  0.13473  1.0000
  I   I109      1.0  0.82452  0.18955  0.00305  1.0000
  I   I110      1.0  0.52953  0.61801  0.29673  1.0000
  I   I111      1.0  0.94070  0.51975  0.67522  1.0000
  I   I112      1.0  0.67690  0.18152  0.48498  1.0000
  I   I113      1.0  0.90160  0.38970  0.96535  1.0000
  I   I114      1.0  0.23188  0.15080  0.48383  1.0000
  I   I115      1.0  0.31002  0.75681  0.78844  1.0000
  I   I116      1.0  0.36842  0.70909  0.81804  1.0000
  I   I117      1.0  0.78838  0.76765  0.66166  1.0000
  I   I118      1.0  0.20254  0.20508  0.96659  1.0000
  I   I119      1.0  0.33184  0.69957  0.75766  1.0000
  I   I120      1.0  0.45704  0.39417  0.57278  1.0000
  I   I121      1.0  0.45089  0.54143  0.53121  1.0000
  I   I122      1.0  0.86580  0.12485  0.71138  1.0000
  I   I123      1.0  0.78751  0.84035  0.26800  1.0000
  I   I124      1.0  0.30669  0.60253  0.55399  1.0000
  I   I125      1.0  0.19768  0.94904  0.77997  1.0000
  I   I126      1.0  0.04723  0.76269  0.63105  1.0000
  I   I127      1.0  0.67780  0.30292  0.12909  1.0000
  I   I128      1.0  0.47667  0.74371  0.04586  1.0000
  I   I129      1.0  0.43426  0.28337  0.37254  1.0000
  I   I130      1.0  0.93344  0.96170  0.94834  1.0000
  I   I131      1.0  0.68100  0.53074  0.93565  1.0000
  I   I132      1.0  0.56531  0.23527  0.81090  1.0000
  I   I133      1.0  0.92026  0.37034  0.30903  1.0000
  I   I134      1.0  0.58509  0.57690  0.61738  1.0000
  I   I135      1.0  0.30159  0.89875  0.34591  1.0000
  I   I136      1.0  0.29903  0.38231  0.13923  1.0000
  I   I137      1.0  0.38328  0.64728  0.18443  1.0000
  I   I138      1.0  0.91723  0.25508  0.94193  1.0000
  I   I139      1.0  0.53908  0.38713  0.11078  1.0000
  I   I140      1.0  0.63244  0.64158  0.78687  1.0000
  I   I141      1.0  0.28354  0.96253  0.90898  1.0000
  I   I142      1.0  0.60781  0.73332  0.35023  1.0000
  I   I143      1.0  0.05631  0.99059  0.32506  1.0000
  I   I144      1.0  0.55002  0.29099  0.19128  1.0000
  I   I145      1.0  0.58566  0.71378  0.19839  1.0000
  I   I146      1.0  0.59334  0.94833  0.51525  1.0000
  I   I147      1.0  0.04195  0.03872  0.32435  1.0000
  I   I148      1.0  0.34148  0.65789  0.26052  1.0000
  I   I149      1.0  0.91152  0.84457  0.71570  1.0000
  I   I150      1.0  0.20101  0.91364  0.43720  1.0000
  I   I151      1.0  0.77793  0.64854  0.24630  1.0000
  I   I152      1.0  0.68225  0.31693  0.56799  1.0000
  I   I153      1.0  0.10601  0.10696  0.67525  1.0000
  I   I154      1.0  0.42000  0.58896  0.99879  1.0000
  I   I155      1.0  0.09481  0.98479  0.78379  1.0000
  I   I156      1.0  0.06534  0.18819  0.70228  1.0000
  I   I157      1.0  0.86962  0.14135  0.17487  1.0000
  I   I158      1.0  0.00973  0.78676  0.82096  1.0000
  I   I159      1.0  0.52112  0.14484  0.40654  1.0000
  I   I160      1.0  0.62423  0.22952  0.56955  1.0000
  I   I161      1.0  0.28750  0.13143  0.41609  1.0000
  I   I162      1.0  0.58489  0.26840  0.50055  1.0000
  I   I163      1.0  0.22857  0.03746  0.19995  1.0000
  I   I164      1.0  0.77589  0.76251  0.00053  1.0000
  I   I165      1.0  0.71610  0.33196  0.71543  1.0000
  I   I166      1.0  0.22068  0.21274  0.87625  1.0000
  I   I167      1.0  0.38867  0.27209  0.34634  1.0000
  I   I168      1.0  0.71304  0.58689  0.39311  1.0000
  I   I169      1.0  0.84551  0.08676  0.84740  1.0000
  I   I170      1.0  0.83822  0.15257  0.78926  1.0000
  I   I171      1.0  0.83913  0.81490  0.68058  1.0000
  I   I172      1.0  0.26296  0.90555  0.76090  1.0000
  I   I173      1.0  0.08430  0.69130  0.60801  1.0000
  I   I174      1.0  0.32898  0.63234  0.61000  1.0000
  I   I175      1.0  0.93134  0.89100  0.52917  1.0000
  I   I176      1.0  0.22164  0.06223  0.73647  1.0000
  I   I177      1.0  0.65475  0.09079  0.74135  1.0000
  I   I178      1.0  0.62430  0.56495  0.89693  1.0000
  I   I179      1.0  0.91263  0.15918  0.60021  1.0000
  I   I180      1.0  0.93240  0.01534  0.01250  1.0000
  I   I181      1.0  0.46546  0.96362  0.54935  1.0000
  I   I182      1.0  0.40820  0.14962  0.79404  1.0000
  I   I183      1.0  0.52553  0.83769  0.62778  1.0000
  I   I184      1.0  0.73548  0.21738  0.94573  1.0000
  I   I185      1.0  0.92153  0.24747  0.03473  1.0000
  I   I186      1.0  0.24234  0.43489  0.17585  1.0000
  I   I187      1.0  0.60107  0.63828  0.83186  1.0000
  I   I188      1.0  0.12029  0.38047  0.40271  1.0000
  I   I189      1.0  0.53844  0.78616  0.72386  1.0000
  I   I190      1.0  0.71840  0.74923  0.97374  1.0000
  I   I191      1.0  0.27496  0.18079  0.42102  1.0000
  I   I192      1.0  0.08623  0.02163  0.36149  1.0000
  I   I193      1.0  0.09686  0.72139  0.65398  1.0000
  I   I194      1.0  0.92070  0.47455  0.71062  1.0000
  I   I195      1.0  0.03984  0.03985  0.42294  1.0000
  I   I196      1.0  0.42473  0.79947  0.07707  1.0000
  I   I197      1.0  0.83744  0.00548  0.38886  1.0000
  I   I198      1.0  0.15309  0.95652  0.39692  1.0000
  I   I199      1.0  0.22243  0.08467  0.65435  1.0000
  I   I200      1.0  0.69597  0.99691  0.53727  1.0000
  I   I201      1.0  0.11381  0.02590  0.75216  1.0000
  I   I202      1.0  0.86198  0.40433  0.53657  1.0000
  I   I203      1.0  0.18453  0.80832  0.74348  1.0000
  I   I204      1.0  0.27873  0.94785  0.09158  1.0000
  I   I205      1.0  0.49866  0.65499  0.38015  1.0000
  I   I206      1.0  0.39615  0.77369  0.07804  1.0000
  I   I207      1.0  0.82569  0.13527  0.03364  1.0000
  I   I208      1.0  0.87521  0.35079  0.49627  1.0000
  I   I209      1.0  0.32885  0.12652  0.48948  1.0000
  I   I210      1.0  0.69509  0.04618  0.73908  1.0000
  I   I211      1.0  0.32643  0.56261  0.89180  1.0000
  I   I212      1.0  0.02203  0.79135  0.90781  1.0000
  I   I213      1.0  0.17204  0.85838  0.73210  1.0000
  I   I214      1.0  0.55461  0.27516  0.08724  1.0000
  I   I215      1.0  0.39036  0.29701  0.48531  1.0000
  I   I216      1.0  0.32286  0.95649  0.99245  1.0000
  I   I217      1.0  0.87176  0.16963  0.73331  1.0000
  I   I218      1.0  0.80414  0.79121  0.33571  1.0000
  I   I219      1.0  0.43658  0.53069  0.42525  1.0000
  I   I220      1.0  0.88806  0.10755  0.08765  1.0000
  I   I221      1.0  0.05316  0.74863  0.72794  1.0000
  I   I222      1.0  0.23615  0.95482  0.71269  1.0000
  I   I223      1.0  0.89802  0.88182  0.47177  1.0000
  I   I224      1.0  0.19311  0.12441  0.71764  1.0000
  I   I225      1.0  0.72945  0.28051  0.11942  1.0000
  I   I226      1.0  0.69625  0.53791  0.84715  1.0000
  I   I227      1.0  0.54773  0.22591  0.71071  1.0000
  I   I228      1.0  0.97387  0.94871  0.89313  1.0000
  I   I229      1.0  0.78809  0.06494  0.39663  1.0000
  I   I230      1.0  0.54872  0.54634  0.68635  1.0000
  I   I231      1.0  0.89462  0.41680  0.23539  1.0000
  I   I232      1.0  0.44344  0.75577  0.14123  1.0000
  I   I233      1.0  0.79216  0.37104  0.13771  1.0000
  I   I234      1.0  0.23202  0.17489  0.39311  1.0000
  I   I235      1.0  0.46934  0.59349  0.98375  1.0000
  I   I236      1.0  0.34824  0.91293  0.90321  1.0000
  I   I237      1.0  0.56779  0.40766  0.05737  1.0000
  I   I238      1.0  0.15349  0.89368  0.01350  1.0000
  I   I239      1.0  0.25787  0.18775  0.95115  1.0000
  I   I240      1.0  0.69609  0.71765  0.42784  1.0000
  I   I241      1.0  0.55103  0.74927  0.13880  1.0000
  I   I242      1.0  0.61028  0.98077  0.57849  1.0000
  I   I243      1.0  0.84446  0.74944  0.63505  1.0000
  I   I244      1.0  0.67213  0.23908  0.89383  1.0000
  I   I245      1.0  0.69891  0.00325  0.29589  1.0000
  I   I246      1.0  0.14931  0.90970  0.43700  1.0000
  I   I247      1.0  0.46067  0.07133  0.83275  1.0000
  I   I248      1.0  0.69672  0.34075  0.63158  1.0000
  I   I249      1.0  0.12169  0.03468  0.65222  1.0000
  I   I250      1.0  0.91116  0.40002  0.59185  1.0000
  I   I251      1.0  0.10560  0.97448  0.68295  1.0000
  I   I252      1.0  0.12023  0.16412  0.71246  1.0000
  I   I253      1.0  0.44713  0.68146  0.32419  1.0000
  I   I254      1.0  0.45095  0.70095  0.13372  1.0000
  I   I255      1.0  0.53046  0.18821  0.42075  1.0000
  I   I256      1.0  0.90617  0.43381  0.97781  1.0000
  I   I257      1.0  0.50497  0.95429  0.48207  1.0000
  I   I258      1.0  0.66227  0.23217  0.53697  1.0000
  I   I259      1.0  0.34662  0.74330  0.71915  1.0000
  I   I260      1.0  0.77341  0.72479  0.94913  1.0000
  I   I261      1.0  0.66300  0.37363  0.71201  1.0000
  I   I262      1.0  0.53022  0.33863  0.12694  1.0000
  I   I263      1.0  0.60212  0.56178  0.06203  1.0000
  I   I264      1.0  0.96677  0.99669  0.89168  1.0000
  I   I265      1.0  0.80886  0.13829  0.87360  1.0000
  I   I266      1.0  0.12761  0.86069  0.75604  1.0000
  I   I267      1.0  0.46160  0.48901  0.51199  1.0000
  I   I268      1.0  0.26478  0.95914  0.31940  1.0000
  I   I269      1.0  0.07560  0.73114  0.53294  1.0000
  I   I270      1.0  0.35739  0.01882  0.22731  1.0000
  I   I271      1.0  0.89309  0.87322  0.57832  1.0000
  I   I272      1.0  0.43733  0.26327  0.30241  1.0000
  I   I273      1.0  0.69196  0.33831  0.08595  1.0000
  I   I274      1.0  0.78521  0.32387  0.10369  1.0000
  I   I275      1.0  0.79981  0.81069  0.78285  1.0000
  I   I276      1.0  0.88073  0.00259  0.00019  1.0000
  I   I277      1.0  0.65498  0.58303  0.83367  1.0000
  I   I278      1.0  0.57747  0.53560  0.58909  1.0000
  I   I279      1.0  0.16543  0.38637  0.42840  1.0000
  I   I280      1.0  0.36433  0.69435  0.25423  1.0000
  I   I281      1.0  0.80992  0.31414  0.18993  1.0000
  I   I282      1.0  0.23898  0.40237  0.10329  1.0000
  I   I283      1.0  0.47122  0.53939  0.97936  1.0000
  I   I284      1.0  0.65733  0.64104  0.41011  1.0000
  I   I285      1.0  0.50412  0.83816  0.72067  1.0000
  I   I286      1.0  0.15667  0.87368  0.12158  1.0000
  I   I287      1.0  0.49305  0.31249  0.72808  1.0000
  I   I288      1.0  0.64117  0.75135  0.42608  1.0000
  I   I289      1.0  0.43540  0.57749  0.89968  1.0000
  I   I290      1.0  0.31756  0.17675  0.47741  1.0000
  I   I291      1.0  0.66291  0.95758  0.54035  1.0000
  I   I292      1.0  0.32876  0.69802  0.16793  1.0000
  I   I293      1.0  0.66471  0.03596  0.23222  1.0000
  I   I294      1.0  0.69769  0.92561  0.99420  1.0000
  I   I295      1.0  0.45853  0.12521  0.78957  1.0000
  I   I296      1.0  0.74384  0.01940  0.51019  1.0000
  I   I297      1.0  0.05735  0.05883  0.70875  1.0000
  I   I298      1.0  0.79731  0.03613  0.48639  1.0000
  I   I299      1.0  0.86071  0.36706  0.60608  1.0000
  I   I300      1.0  0.30588  0.91501  0.95441  1.0000
  I   I301      1.0  0.50622  0.16943  0.48996  1.0000
  I   I302      1.0  0.47191  0.64032  0.26199  1.0000
  I   I303      1.0  0.95456  0.38160  0.95050  1.0000
  I   I304      1.0  0.64307  0.25508  0.46371  1.0000
  I   I305      1.0  0.90728  0.33340  0.59024  1.0000
  I   I306      1.0  0.41798  0.11703  0.87869  1.0000
  I   I307      1.0  0.25708  0.99755  0.12371  1.0000
  I   I308      1.0  0.03437  0.28735  0.93977  1.0000
  I   I309      1.0  0.72878  0.31223  0.54163  1.0000
  I   I310      1.0  0.79109  0.91222  0.09882  1.0000
  I   I311      1.0  0.64577  0.52269  0.11424  1.0000
  I   I312      1.0  0.45840  0.36610  0.70272  1.0000
  I   I313      1.0  0.49389  0.51117  0.46699  1.0000
  I   I314      1.0  0.87767  0.10731  0.81851  1.0000
  I   I315      1.0  0.76282  0.80267  0.25219  1.0000
  I   I316      1.0  0.24587  0.95203  0.81081  1.0000
  I   I317      1.0  0.31771  0.93642  0.28034  1.0000
  I   I318      1.0  0.02852  0.72701  0.64174  1.0000
  I   I319      1.0  0.69264  0.10427  0.69829  1.0000
  I   I320      1.0  0.44089  0.76413  0.00200  1.0000
  I   I321      1.0  0.76478  0.60553  0.24449  1.0000
  I   I322      1.0  0.73694  0.59668  0.78769  1.0000
  I   I323      1.0  0.94569  0.16216  0.47948  1.0000
  I   I324      1.0  0.93708  0.96555  0.83408  1.0000
  I   I325      1.0  0.46964  0.95963  0.40140  1.0000
  I   I326      1.0  0.44269  0.09749  0.69136  1.0000
  I   I327      1.0  0.95642  0.16380  0.57261  1.0000
  I   I328      1.0  0.94923  0.34864  0.23315  1.0000
  I   I329      1.0  0.94029  0.29696  0.96883  1.0000
  I   I330      1.0  0.27118  0.15749  0.50469  1.0000
  I   I331      1.0  0.49379  0.81497  0.63182  1.0000
  I   I332      1.0  0.32509  0.14629  0.41097  1.0000
  I   I333      1.0  0.79578  0.57897  0.76868  1.0000
  I   I334      1.0  0.63771  0.70308  0.42421  1.0000
  I   I335      1.0  0.84262  0.71467  0.70310  1.0000
  I   I336      1.0  0.21764  0.24457  0.99185  1.0000
  I   I337      1.0  0.73775  0.91901  0.07067  1.0000
  I   I338      1.0  0.04298  0.30783  0.02917  1.0000
  I   I339      1.0  0.64547  0.92411  0.49042  1.0000
  I   I340      1.0  0.93196  0.67857  0.34600  1.0000
  I   I341      1.0  0.96149  0.79499  0.73869  1.0000
  I   I342      1.0  0.72060  0.90948  0.91189  1.0000
  I   I343      1.0  0.75832  0.62984  0.34103  1.0000
  I   I344      1.0  0.74834  0.96732  0.50597  1.0000
  I   I345      1.0  0.07277  0.09148  0.73237  1.0000
  I   I346      1.0  0.28537  0.58090  0.94911  1.0000
  I   I347      1.0  0.94349  0.34674  0.63230  1.0000
  I   I348      1.0  0.10199  0.21567  0.76711  1.0000
  I   I349      1.0  0.46470  0.18783  0.41422  1.0000
  I   I350      1.0  0.50733  0.66455  0.28222  1.0000
  I   I351      1.0  0.43533  0.72549  0.04946  1.0000
  I   I352      1.0  0.62347  0.22011  0.47580  1.0000
  I   I353      1.0  0.92435  0.40055  0.06063  1.0000
  I   I354      1.0  0.39611  0.13874  0.69700  1.0000
  I   I355      1.0  0.21330  0.05275  0.10022  1.0000
  I   I356      1.0  0.82139  0.72094  0.59519  1.0000
  I   I357      1.0  0.21027  0.84639  0.65802  1.0000
  I   I358      1.0  0.66459  0.60723  0.32034  1.0000
  I   I359      1.0  0.61280  0.57612  0.16892  1.0000
  I   I360      1.0  0.50563  0.35709  0.74987  1.0000
  I   I361      1.0  0.78732  0.82814  0.68591  1.0000
  I   I362      1.0  0.81471  0.11798  0.77498  1.0000
  I   I363      1.0  0.20641  0.79803  0.66190  1.0000
  I   I364      1.0  0.28581  0.63056  0.66230  1.0000
  I   I365      1.0  0.83438  0.17427  0.10175  1.0000
  I   I366      1.0  0.07831  0.69992  0.71797  1.0000
  I   I367      1.0  0.65847  0.09314  0.64023  1.0000
  I   I368      1.0  0.94416  0.67997  0.25338  1.0000
  I   I369      1.0  0.38579  0.31118  0.39641  1.0000
  I   I370      1.0  0.75899  0.32834  0.17931  1.0000
  I   I371      1.0  0.85187  0.19455  0.57269  1.0000
  I   I372      1.0  0.66333  0.58831  0.43186  1.0000
  I   I373      1.0  0.49991  0.90965  0.40658  1.0000
  I   I374      1.0  0.52438  0.59072  0.61304  1.0000
  I   I375      1.0  0.90152  0.15064  0.53144  1.0000
  I   I376      1.0  0.65777  0.56365  0.09240  1.0000
  I   I377      1.0  0.97010  0.23296  0.00071  1.0000
  I   I378      1.0  0.27757  0.43602  0.09300  1.0000
  I   I379      1.0  0.51462  0.38738  0.02565  1.0000
  I   I380      1.0  0.66697  0.63193  0.85837  1.0000
  I   I381      1.0  0.22296  0.00411  0.08085  1.0000
  I   I382      1.0  0.70107  0.74837  0.35734  1.0000
  I   I383      1.0  0.10284  0.94024  0.77631  1.0000
  I   I384      1.0  0.47752  0.34463  0.62731  1.0000
