data_image0
_chemical_formula_structural       Ti96I384
_chemical_formula_sum              "Ti96 I384"
_cell_length_a       73.8093
_cell_length_b       73.7863
_cell_length_c       36.0914
_cell_angle_alpha    88.7757
_cell_angle_beta     88.7757
_cell_angle_gamma    62.1586

_space_group_name_H-M_alt    "P 1"
_space_group_IT_number       1

loop_
  _space_group_symop_operation_xyz
  'x, y, z'

loop_
  _atom_site_type_symbol
  _atom_site_label
  _atom_site_symmetry_multiplicity
  _atom_site_fract_x
  _atom_site_fract_y
  _atom_site_fract_z
  _atom_site_occupancy
  Ti  Ti1       1.0  0.73360  0.31366  0.87532  1.0000
  Ti  Ti2       1.0  0.42754  0.71719  0.41990  1.0000
  Ti  Ti3       1.0  0.19949  0.98413  0.21449  1.0000
  Ti  Ti4       1.0  0.09715  0.20704  0.91667  1.0000
  Ti  Ti5       1.0  0.40250  0.88629  0.59110  1.0000
  Ti  Ti6       1.0  0.38554  0.33052  0.46607  1.0000
  Ti  Ti7       1.0  0.56639  0.61476  0.82441  1.0000
  Ti  Ti8       1.0  0.25393  0.61756  0.46757  1.0000
  Ti  Ti9       1.0  0.31088  0.28316  0.66213  1.0000
  Ti  Ti10      1.0  0.60176  0.65822  0.25817  1.0000
  Ti  Ti11      1.0  0.21677  0.11720  0.23652  1.0000
  Ti  Ti12      1.0  0.85230  0.08362  0.82122  1.0000
  Ti  Ti13      1.0  0.86598  0.78106  0.48776  1.0000
  Ti  Ti14      1.0  0.03687  0.24248  0.93978  1.0000
  Ti  Ti15      1.0  0.83048  0.64538  0.58854  1.0000
  Ti  Ti16      1.0  0.18797  0.42765  0.54536  1.0000
  Ti  Ti17      1.0  0.07742  0.10732  0.34403  1.0000
  Ti  Ti18      1.0  0.14097  0.32817  0.74123  1.0000
  Ti  Ti19      1.0  0.06057  0.87682  0.13911  1.0000
  Ti  Ti20      1.0  0.23158  0.65544  0.81600  1.0000
  Ti  Ti21      1.0  0.31244  0.55962  0.42298  1.0000
  Ti  Ti22      1.0  0.97810  0.24124  0.58208  1.0000
  Ti  Ti23      1.0  0.01392  0.99613  0.38343  1.0000
  Ti  Ti24      1.0  0.73578  0.18247  0.24857  1.0000
  Ti  Ti25      1.0  0.57295  0.56159  0.27426  1.0000
  Ti  Ti26      1.0  0.62248  0.97609  0.99788  1.0000
  Ti  Ti27      1.0  0.61413  0.34572  0.36758  1.0000
  Ti  Ti28      1.0  0.29409  0.09174  0.49452  1.0000
  Ti  Ti29      1.0  0.36488  0.73687  0.00734  1.0000
  Ti  Ti30      1.0  0.50168  0.89397  0.36141  1.0000
  Ti  Ti31      1.0  0.19779  0.93032  0.36721  1.0000
  Ti  Ti32      1.0  0.51646  0.75619  0.83536  1.0000
  Ti  Ti33      1.0  0.42483  0.52716  0.99262  1.0000
  Ti  Ti34      1.0  0.61112  0.58880  0.55762  1.0000
  Ti  Ti35      1.0  0.02479  0.57142  0.50826  1.0000
  Ti  Ti36      1.0  0.68600  0.21237  0.38131  1.0000
  Ti  Ti37      1.0  0.89191  0.90216  0.78335  1.0000
  Ti  Ti38      1.0  0.47970  0.11062  0.54933  1.0000
  Ti  Ti39      1.0  0.85562  0.65515  0.93153  1.0000
  Ti  Ti40      1.0  0.57037  0.75451  0.52224  1.0000
  Ti  Ti41      1.0  0.76884  0.43747  0.04837  1.0000
  Ti  Ti42      1.0  0.04011  0.37229  0.15375  1.0000
  Ti  Ti43      1.0  0.80223  0.90738  0.38261  1.0000
  Ti  Ti44      1.0  0.82404  0.41242  0.12542  1.0000
  Ti  Ti45      1.0  0.22485  0.20461  0.35070  1.0000
  Ti  Ti46      1.0  0.47179  0.95574  0.16313  1.0000
  Ti  Ti47      1.0  0.22245  0.93714  0.85574  1.0000
  Ti  Ti48      1.0  0.13138  0.07902  0.95618  1.0000
  Ti  Ti49      1.0  0.79361  0.88415  0.21778  1.0000
  Ti  Ti50      1.0  0.07876  0.20970  0.34168  1.0000
  Ti  Ti51      1.0  0.39357  0.72145  0.46926  1.0000
  Ti  Ti52      1.0  0.85722  0.42977  0.56426  1.0000
  Ti  Ti53      1.0  0.98332  0.80318  0.25535  1.0000
  Ti  Ti54      1.0  0.79896  0.01902  0.66124  1.0000
  Ti  Ti55      1.0  0.57376  0.68908  0.87488  1.0000
  Ti  Ti56      1.0  0.21036  0.01762  0.51588  1.0000
  Ti  Ti57      1.0  0.31062  0.28826  0.57718  1.0000
  Ti  Ti58      1.0  0.42620  0.58320  0.36714  1.0000
  Ti  Ti59      1.0  0.46927  0.35165  0.81676  1.0000
  Ti  Ti60      1.0  0.88506  0.06568  0.70784  1.0000
  Ti  Ti61      1.0  0.79000  0.69384  0.66141  1.0000
  Ti  Ti62      1.0  0.80252  0.79482  0.50458  1.0000
  Ti  Ti63      1.0  0.21068  0.60014  0.00889  1.0000
  Ti  Ti64      1.0  0.13952  0.36570  0.68309  1.0000
  Ti  Ti65      1.0  0.14242  0.76607  0.51311  1.0000
  Ti  Ti66      1.0  0.27125  0.46571  0.55002  1.0000
  Ti  Ti67      1.0  0.04881  0.38848  0.54883  1.0000
  Ti  Ti68      1.0  0.73748  0.08399  0.34458  1.0000
  Ti  Ti69      1.0  0.66933  0.89000  0.22692  1.0000
  Ti  Ti70      1.0  0.06737  0.35242  0.45643  1.0000
  Ti  Ti71      1.0  0.06483  0.96011  0.42794  1.0000
  Ti  Ti72      1.0  0.27888  0.90700  0.89155  1.0000
  Ti  Ti73      1.0  0.64483  0.36048  0.37197  1.0000
  Ti  Ti74      1.0  0.54709  0.54066  0.34456  1.0000
  Ti  Ti75      1.0  0.42277  0.09522  0.89392  1.0000
  Ti  Ti76      1.0  0.34931  0.08059  0.41585  1.0000
  Ti  Ti77      1.0  0.91958  0.70208  0.68182  1.0000
  Ti  Ti78      1.0  0.31666  0.79618  0.05211  1.0000
  Ti  Ti79      1.0  0.58711  0.29559  0.59490  1.0000
  Ti  Ti80      1.0  0.12944  0.26879  0.16675  1.0000
  Ti  Ti81      1.0  0.46830  0.79048  0.79881  1.0000
  Ti  Ti82      1.0  0.93157  0.35659  0.31923  1.0000
  Ti  Ti83      1.0  0.01984  0.57886  0.62806  1.0000
  Ti  Ti84      1.0  0.65427  0.19505  0.38043  1.0000
  Ti  Ti85      1.0  0.90367  0.90878  0.70220  1.0000
  Ti  Ti86      1.0  0.56896  0.46681  0.97617  1.0000
  Ti  Ti87      1.0  0.22457  0.25771  0.38383  1.0000
  Ti  Ti88      1.0  0.80609  0.60396  0.32356  1.0000
  Ti  Ti89      1.0  0.44271  0.42101  0.14958  1.0000
  Ti  Ti90      1.0  0.00985  0.40642  0.21869  1.0000
  Ti  Ti91      1.0  0.18874  0.78864  0.16423  1.0000
  Ti  Ti92      1.0  0.58435  0.84837  0.05471  1.0000
  Ti  Ti93      1.0  0.92481  0.09869  0.36883  1.0000
  Ti  Ti94      1.0  0.08255  0.09097  0.92152  1.0000
  Ti  Ti95      1.0  0.96094  0.55300  0.86659  1.0000
  Ti  Ti96      1.0  0.00887  0.23360  0.64547  1.0000
  I   I1        1.0  0.30459  0.89576  0.82860  1.0000
  I   I2        1.0  0.41969  0.68182  0.46235  1.0000
  I   I3        1.0  0.77791  0.88841  0.14392  1.0000
  I   I4        1.0  0.01678  0.77711  0.22435  1.0000
  I   I5        1.0  0.39475  0.35924  0.45386  1.0000
  I   I6        1.0  0.76325  0.02171  0.64547  1.0000
  I   I7        1.0  0.23454  0.62889  0.53221  1.0000
  I   I8        1.0  0.22606  0.04298  0.50831  1.0000
  I   I9        1.0  0.27586  0.31710  0.56363  1.0000
  I   I10       1.0  0.60992  0.65116  0.33061  1.0000
  I   I11       1.0  0.17743  0.14291  0.23209  1.0000
  I   I12       1.0  0.41305  0.88349  0.51986  1.0000
  I   I13       1.0  0.87840  0.75651  0.54144  1.0000
  I   I14       1.0  0.22063  0.61157  0.94984  1.0000
  I   I15       1.0  0.82914  0.61305  0.62045  1.0000
  I   I16       1.0  0.57833  0.67392  0.20062  1.0000
  I   I17       1.0  0.29231  0.45577  0.48464  1.0000
  I   I18       1.0  0.14032  0.29840  0.69880  1.0000
  I   I19       1.0  0.21092  0.68919  0.85711  1.0000
  I   I20       1.0  0.22809  0.09065  0.28707  1.0000
  I   I21       1.0  0.27055  0.64426  0.47376  1.0000
  I   I22       1.0  0.97953  0.03169  0.39636  1.0000
  I   I23       1.0  0.10055  0.93632  0.39775  1.0000
  I   I24       1.0  0.06738  0.36919  0.61202  1.0000
  I   I25       1.0  0.60472  0.56652  0.28960  1.0000
  I   I26       1.0  0.42244  0.12990  0.89944  1.0000
  I   I27       1.0  0.58320  0.34099  0.39775  1.0000
  I   I28       1.0  0.32573  0.06189  0.43664  1.0000
  I   I29       1.0  0.31973  0.82795  0.08043  1.0000
  I   I30       1.0  0.52229  0.91354  0.34904  1.0000
  I   I31       1.0  0.10516  0.25493  0.18851  1.0000
  I   I32       1.0  0.49429  0.74533  0.79294  1.0000
  I   I33       1.0  0.62307  0.26139  0.59695  1.0000
  I   I34       1.0  0.06112  0.53742  0.49293  1.0000
  I   I35       1.0  0.65621  0.22294  0.31888  1.0000
  I   I36       1.0  0.60067  0.60406  0.49066  1.0000
  I   I37       1.0  0.90803  0.87060  0.72390  1.0000
  I   I38       1.0  0.82990  0.64113  0.92232  1.0000
  I   I39       1.0  0.87126  0.87652  0.78992  1.0000
  I   I40       1.0  0.81215  0.39942  0.05174  1.0000
  I   I41       1.0  0.03481  0.36458  0.22166  1.0000
  I   I42       1.0  0.53200  0.78221  0.53249  1.0000
  I   I43       1.0  0.42456  0.57757  0.43941  1.0000
  I   I44       1.0  0.82651  0.43666  0.17254  1.0000
  I   I45       1.0  0.25086  0.25387  0.43692  1.0000
  I   I46       1.0  0.92616  0.57663  0.82510  1.0000
  I   I47       1.0  0.21212  0.96886  0.91013  1.0000
  I   I48       1.0  0.14824  0.04702  0.99630  1.0000
  I   I49       1.0  0.76343  0.88716  0.26153  1.0000
  I   I50       1.0  0.39612  0.71452  0.39152  1.0000
  I   I51       1.0  0.44210  0.73599  0.38395  1.0000
  I   I52       1.0  0.12002  0.28395  0.09878  1.0000
  I   I53       1.0  0.99734  0.80917  0.31559  1.0000
  I   I54       1.0  0.78877  0.05623  0.64441  1.0000
  I   I55       1.0  0.52916  0.63448  0.85386  1.0000
  I   I56       1.0  0.32338  0.56435  0.35387  1.0000
  I   I57       1.0  0.93899  0.53186  0.88776  1.0000
  I   I58       1.0  0.62156  0.68094  0.24581  1.0000
  I   I59       1.0  0.45225  0.37228  0.75795  1.0000
  I   I60       1.0  0.91964  0.06594  0.72317  1.0000
  I   I61       1.0  0.78890  0.76842  0.47774  1.0000
  I   I62       1.0  0.81104  0.78782  0.57800  1.0000
  I   I63       1.0  0.18093  0.63278  0.04199  1.0000
  I   I64       1.0  0.21214  0.38908  0.54370  1.0000
  I   I65       1.0  0.17790  0.73346  0.49948  1.0000
  I   I66       1.0  0.27318  0.43147  0.56950  1.0000
  I   I67       1.0  0.06955  0.90598  0.13977  1.0000
  I   I68       1.0  0.23987  0.66857  0.75294  1.0000
  I   I69       1.0  0.65660  0.86237  0.21347  1.0000
  I   I70       1.0  0.09960  0.32440  0.41829  1.0000
  I   I71       1.0  0.06961  0.97003  0.50226  1.0000
  I   I72       1.0  0.24871  0.90045  0.83668  1.0000
  I   I73       1.0  0.65530  0.31596  0.38362  1.0000
  I   I74       1.0  0.61381  0.01125  0.96502  1.0000
  I   I75       1.0  0.64027  0.96793  0.06227  1.0000
  I   I76       1.0  0.89250  0.72312  0.72964  1.0000
  I   I77       1.0  0.91543  0.71770  0.61730  1.0000
  I   I78       1.0  0.76415  0.29453  0.91606  1.0000
  I   I79       1.0  0.40268  0.50835  0.97985  1.0000
  I   I80       1.0  0.15803  0.95314  0.38165  1.0000
  I   I81       1.0  0.48407  0.77084  0.87968  1.0000
  I   I82       1.0  0.92201  0.32354  0.32158  1.0000
  I   I83       1.0  0.00205  0.62078  0.63363  1.0000
  I   I84       1.0  0.69121  0.16386  0.36514  1.0000
  I   I85       1.0  0.87068  0.93513  0.73394  1.0000
  I   I86       1.0  0.28632  0.47674  0.60689  1.0000
  I   I87       1.0  0.87886  0.63449  0.87526  1.0000
  I   I88       1.0  0.57872  0.71883  0.55473  1.0000
  I   I89       1.0  0.78475  0.44325  0.11042  1.0000
  I   I90       1.0  0.98309  0.40438  0.16687  1.0000
  I   I91       1.0  0.20806  0.78706  0.09717  1.0000
  I   I92       1.0  0.61892  0.84364  0.03109  1.0000
  I   I93       1.0  0.85717  0.41257  0.09665  1.0000
  I   I94       1.0  0.08017  0.06080  0.88513  1.0000
  I   I95       1.0  0.49559  0.94549  0.22471  1.0000
  I   I96       1.0  0.01499  0.26161  0.67885  1.0000
  I   I97       1.0  0.22933  0.98632  0.24399  1.0000
  I   I98       1.0  0.73179  0.34924  0.90068  1.0000
  I   I99       1.0  0.36290  0.71480  0.45002  1.0000
  I   I100      1.0  0.05431  0.21535  0.99294  1.0000
  I   I101      1.0  0.78877  0.62553  0.26231  1.0000
  I   I102      1.0  0.43379  0.86486  0.64093  1.0000
  I   I103      1.0  0.57263  0.62562  0.75513  1.0000
  I   I104      1.0  0.61183  0.67059  0.86164  1.0000
  I   I105      1.0  0.33396  0.29007  0.70782  1.0000
  I   I106      1.0  0.90371  0.03843  0.65892  1.0000
  I   I107      1.0  0.62402  0.62113  0.22349  1.0000
  I   I108      1.0  0.86559  0.05376  0.87247  1.0000
  I   I109      1.0  0.83362  0.67456  0.61587  1.0000
  I   I110      1.0  0.77164  0.82924  0.50540  1.0000
  I   I111      1.0  0.24228  0.59382  0.04463  1.0000
  I   I112      1.0  0.13346  0.37351  0.76234  1.0000
  I   I113      1.0  0.15068  0.79569  0.49449  1.0000
  I   I114      1.0  0.10862  0.10696  0.30860  1.0000
  I   I115      1.0  0.06666  0.41192  0.54450  1.0000
  I   I116      1.0  0.04283  0.33691  0.44010  1.0000
  I   I117      1.0  0.73128  0.08799  0.41810  1.0000
  I   I118      1.0  0.97123  0.27984  0.60013  1.0000
  I   I119      1.0  0.04676  0.38909  0.42616  1.0000
  I   I120      1.0  0.26073  0.94233  0.85447  1.0000
  I   I121      1.0  0.64329  0.39330  0.33950  1.0000
  I   I122      1.0  0.59793  0.52265  0.27994  1.0000
  I   I123      1.0  0.44891  0.06463  0.84870  1.0000
  I   I124      1.0  0.46352  0.92577  0.37354  1.0000
  I   I125      1.0  0.26618  0.11733  0.45046  1.0000
  I   I126      1.0  0.32152  0.76248  0.99537  1.0000
  I   I127      1.0  0.45708  0.52728  0.03074  1.0000
  I   I128      1.0  0.05842  0.25138  0.89633  1.0000
  I   I129      1.0  0.46377  0.79948  0.72986  1.0000
  I   I130      1.0  0.76774  0.19184  0.24587  1.0000
  I   I131      1.0  0.96716  0.35698  0.34165  1.0000
  I   I132      1.0  0.04884  0.57105  0.57554  1.0000
  I   I133      1.0  0.86314  0.64608  0.00100  1.0000
  I   I134      1.0  0.44423  0.11274  0.56167  1.0000
  I   I135      1.0  0.23484  0.49556  0.54345  1.0000
  I   I136      1.0  0.98852  0.44498  0.24468  1.0000
  I   I137      1.0  0.82781  0.46612  0.58359  1.0000
  I   I138      1.0  0.41523  0.44570  0.19947  1.0000
  I   I139      1.0  0.14945  0.81098  0.15165  1.0000
  I   I140      1.0  0.58723  0.81107  0.06900  1.0000
  I   I141      1.0  0.95857  0.10551  0.34675  1.0000
  I   I142      1.0  0.08864  0.12685  0.92569  1.0000
  I   I143      1.0  0.21188  0.94413  0.20609  1.0000
  I   I144      1.0  0.02700  0.22840  0.56860  1.0000
  I   I145      1.0  0.71046  0.30882  0.92637  1.0000
  I   I146      1.0  0.45718  0.68021  0.39886  1.0000
  I   I147      1.0  0.19455  0.00969  0.16084  1.0000
  I   I148      1.0  0.88491  0.41853  0.62305  1.0000
  I   I149      1.0  0.37926  0.87005  0.60488  1.0000
  I   I150      1.0  0.35947  0.33184  0.51952  1.0000
  I   I151      1.0  0.57450  0.69666  0.95677  1.0000
  I   I152      1.0  0.28185  0.60037  0.39447  1.0000
  I   I153      1.0  0.34415  0.25694  0.60843  1.0000
  I   I154      1.0  0.81796  0.88499  0.32621  1.0000
  I   I155      1.0  0.22260  0.15090  0.24251  1.0000
  I   I156      1.0  0.81267  0.09452  0.82706  1.0000
  I   I157      1.0  0.82400  0.64644  0.52050  1.0000
  I   I158      1.0  0.19912  0.57406  0.99113  1.0000
  I   I159      1.0  0.78405  0.73093  0.62991  1.0000
  I   I160      1.0  0.17346  0.32931  0.71728  1.0000
  I   I161      1.0  0.09376  0.08286  0.39900  1.0000
  I   I162      1.0  0.16521  0.31266  0.80376  1.0000
  I   I163      1.0  0.02478  0.89626  0.17154  1.0000
  I   I164      1.0  0.76999  0.06054  0.30060  1.0000
  I   I165      1.0  0.34614  0.53721  0.44936  1.0000
  I   I166      1.0  0.98198  0.24773  0.50869  1.0000
  I   I167      1.0  0.99096  0.98186  0.40512  1.0000
  I   I168      1.0  0.76759  0.14442  0.27883  1.0000
  I   I169      1.0  0.55191  0.57947  0.32931  1.0000
  I   I170      1.0  0.53785  0.55852  0.41063  1.0000
  I   I171      1.0  0.61703  0.31283  0.33258  1.0000
  I   I172      1.0  0.28664  0.11865  0.54610  1.0000
  I   I173      1.0  0.40279  0.72209  0.02531  1.0000
  I   I174      1.0  0.49917  0.88332  0.29651  1.0000
  I   I175      1.0  0.21894  0.91418  0.30645  1.0000
  I   I176      1.0  0.53122  0.71070  0.87037  1.0000
  I   I177      1.0  0.58632  0.29171  0.66535  1.0000
  I   I178      1.0  0.95268  0.34360  0.25179  1.0000
  I   I179      1.0  0.99261  0.58983  0.55505  1.0000
  I   I180      1.0  0.63459  0.18299  0.33693  1.0000
  I   I181      1.0  0.91571  0.89396  0.63535  1.0000
  I   I182      1.0  0.57399  0.46546  0.90342  1.0000
  I   I183      1.0  0.18657  0.21239  0.33261  1.0000
  I   I184      1.0  0.77361  0.61458  0.36330  1.0000
  I   I185      1.0  0.47746  0.39977  0.18626  1.0000
  I   I186      1.0  0.03449  0.34331  0.13628  1.0000
  I   I187      1.0  0.57069  0.87683  0.09900  1.0000
  I   I188      1.0  0.82505  0.37957  0.15316  1.0000
  I   I189      1.0  0.20298  0.22976  0.40454  1.0000
  I   I190      1.0  0.44267  0.99293  0.15688  1.0000
  I   I191      1.0  0.08668  0.18282  0.39631  1.0000
  I   I192      1.0  0.09254  0.07564  0.98819  1.0000
  I   I193      1.0  0.35806  0.70812  0.03894  1.0000
  I   I194      1.0  0.08225  0.19109  0.27794  1.0000
  I   I195      1.0  0.16804  0.99742  0.26243  1.0000
  I   I196      1.0  0.12001  0.20514  0.85382  1.0000
  I   I197      1.0  0.40093  0.56962  0.34418  1.0000
  I   I198      1.0  0.36377  0.32883  0.41602  1.0000
  I   I199      1.0  0.57621  0.72206  0.85448  1.0000
  I   I200      1.0  0.17398  0.03228  0.53760  1.0000
  I   I201      1.0  0.27262  0.30184  0.68280  1.0000
  I   I202      1.0  0.49840  0.31104  0.81719  1.0000
  I   I203      1.0  0.65390  0.90010  0.29398  1.0000
  I   I204      1.0  0.87734  0.09493  0.77895  1.0000
  I   I205      1.0  0.82458  0.81631  0.48745  1.0000
  I   I206      1.0  0.00260  0.24195  0.91822  1.0000
  I   I207      1.0  0.86995  0.62529  0.58130  1.0000
  I   I208      1.0  0.21610  0.43897  0.55325  1.0000
  I   I209      1.0  0.05375  0.11164  0.29193  1.0000
  I   I210      1.0  0.54975  0.29574  0.59210  1.0000
  I   I211      1.0  0.03465  0.36145  0.52756  1.0000
  I   I212      1.0  0.21083  0.63532  0.83397  1.0000
  I   I213      1.0  0.65554  0.91733  0.17297  1.0000
  I   I214      1.0  0.99428  0.20231  0.59208  1.0000
  I   I215      1.0  0.00593  0.00123  0.31195  1.0000
  I   I216      1.0  0.72635  0.16002  0.20650  1.0000
  I   I217      1.0  0.56863  0.57280  0.20004  1.0000
  I   I218      1.0  0.38348  0.10713  0.87848  1.0000
  I   I219      1.0  0.62303  0.35830  0.43299  1.0000
  I   I220      1.0  0.92040  0.66917  0.67601  1.0000
  I   I221      1.0  0.32751  0.77009  0.10883  1.0000
  I   I222      1.0  0.32749  0.10546  0.46473  1.0000
  I   I223      1.0  0.20131  0.96297  0.36275  1.0000
  I   I224      1.0  0.51836  0.79091  0.84945  1.0000
  I   I225      1.0  0.43941  0.53850  0.93299  1.0000
  I   I226      1.0  0.90241  0.37972  0.27463  1.0000
  I   I227      1.0  0.01286  0.54300  0.48683  1.0000
  I   I228      1.0  0.64899  0.23293  0.41069  1.0000
  I   I229      1.0  0.05319  0.14424  0.36951  1.0000
  I   I230      1.0  0.50462  0.09529  0.60711  1.0000
  I   I231      1.0  0.83741  0.69531  0.90964  1.0000
  I   I232      1.0  0.01262  0.28166  0.96285  1.0000
  I   I233      1.0  0.75376  0.42788  0.99020  1.0000
  I   I234      1.0  0.08257  0.34738  0.14585  1.0000
  I   I235      1.0  0.82619  0.89432  0.44356  1.0000
  I   I236      1.0  0.88689  0.12661  0.39225  1.0000
  I   I237      1.0  0.19728  0.79792  0.22720  1.0000
  I   I238      1.0  0.00275  0.53575  0.87991  1.0000
  I   I239      1.0  0.04118  0.20265  0.67110  1.0000
  I   I240      1.0  0.12193  0.10263  0.01454  1.0000
  I   I241      1.0  0.73134  0.29586  0.80789  1.0000
  I   I242      1.0  0.38884  0.75980  0.43865  1.0000
  I   I243      1.0  0.49972  0.96211  0.12013  1.0000
  I   I244      1.0  0.82517  0.62508  0.33647  1.0000
  I   I245      1.0  0.97155  0.83278  0.20049  1.0000
  I   I246      1.0  0.41913  0.29664  0.47485  1.0000
  I   I247      1.0  0.57671  0.59890  0.89085  1.0000
  I   I248      1.0  0.22925  0.60632  0.43540  1.0000
  I   I249      1.0  0.31788  0.31336  0.62697  1.0000
  I   I250      1.0  0.48514  0.37777  0.82448  1.0000
  I   I251      1.0  0.22477  0.09489  0.17719  1.0000
  I   I252      1.0  0.84064  0.10389  0.88419  1.0000
  I   I253      1.0  0.87868  0.81141  0.49385  1.0000
  I   I254      1.0  0.11517  0.17179  0.95659  1.0000
  I   I255      1.0  0.81031  0.68873  0.71766  1.0000
  I   I256      1.0  0.13908  0.75831  0.58014  1.0000
  I   I257      1.0  0.92115  0.93542  0.69597  1.0000
  I   I258      1.0  0.15664  0.34697  0.61723  1.0000
  I   I259      1.0  0.08618  0.35512  0.51612  1.0000
  I   I260      1.0  0.72258  0.11952  0.30485  1.0000
  I   I261      1.0  0.30660  0.52539  0.41249  1.0000
  I   I262      1.0  0.94049  0.24658  0.59116  1.0000
  I   I263      1.0  0.05562  0.96649  0.35342  1.0000
  I   I264      1.0  0.71527  0.20058  0.31789  1.0000
  I   I265      1.0  0.54037  0.55027  0.26778  1.0000
  I   I266      1.0  0.64553  0.94856  0.95258  1.0000
  I   I267      1.0  0.68642  0.34731  0.37577  1.0000
  I   I268      1.0  0.28500  0.06965  0.53448  1.0000
  I   I269      1.0  0.27518  0.80930  0.04462  1.0000
  I   I270      1.0  0.32857  0.10684  0.35747  1.0000
  I   I271      1.0  0.22575  0.91452  0.41752  1.0000
  I   I272      1.0  0.44832  0.82622  0.82502  1.0000
  I   I273      1.0  0.39854  0.55980  0.02878  1.0000
  I   I274      1.0  0.65065  0.56391  0.55349  1.0000
  I   I275      1.0  0.01176  0.58641  0.44483  1.0000
  I   I276      1.0  0.64163  0.18135  0.43496  1.0000
  I   I277      1.0  0.91828  0.37772  0.37449  1.0000
  I   I278      1.0  0.46859  0.14885  0.52980  1.0000
  I   I279      1.0  0.24066  0.16611  0.38049  1.0000
  I   I280      1.0  0.84617  0.40284  0.56093  1.0000
  I   I281      1.0  0.73357  0.46904  0.07690  1.0000
  I   I282      1.0  0.03783  0.41602  0.19142  1.0000
  I   I283      1.0  0.80352  0.94170  0.36339  1.0000
  I   I284      1.0  0.91255  0.06777  0.37345  1.0000
  I   I285      1.0  0.24528  0.20103  0.29008  1.0000
  I   I286      1.0  0.98111  0.56442  0.81196  1.0000
  I   I287      1.0  0.19328  0.92952  0.87096  1.0000
  I   I288      1.0  0.16372  0.08559  0.95275  1.0000
  I   I289      1.0  0.81418  0.90324  0.20265  1.0000
  I   I290      1.0  0.04806  0.24376  0.33553  1.0000
  I   I291      1.0  0.37963  0.73369  0.53222  1.0000
  I   I292      1.0  0.87334  0.42533  0.49945  1.0000
  I   I293      1.0  0.96638  0.78055  0.27534  1.0000
  I   I294      1.0  0.83665  0.01042  0.64308  1.0000
  I   I295      1.0  0.55304  0.59118  0.79092  1.0000
  I   I296      1.0  0.21532  0.01474  0.44512  1.0000
  I   I297      1.0  0.29190  0.26427  0.60398  1.0000
  I   I298      1.0  0.45948  0.56795  0.32520  1.0000
  I   I299      1.0  0.15988  0.44796  0.50016  1.0000
  I   I300      1.0  0.94390  0.07809  0.42877  1.0000
  I   I301      1.0  0.78077  0.67438  0.61451  1.0000
  I   I302      1.0  0.89885  0.75702  0.43580  1.0000
  I   I303      1.0  0.58324  0.75934  0.45931  1.0000
  I   I304      1.0  0.13409  0.40232  0.67373  1.0000
  I   I305      1.0  0.17212  0.42836  0.61032  1.0000
  I   I306      1.0  0.60381  0.46277  0.98892  1.0000
  I   I307      1.0  0.04940  0.86777  0.07937  1.0000
  I   I308      1.0  0.26820  0.63338  0.83632  1.0000
  I   I309      1.0  0.29004  0.58274  0.49545  1.0000
  I   I310      1.0  0.76466  0.90804  0.40293  1.0000
  I   I311      1.0  0.04124  0.00254  0.43373  1.0000
  I   I312      1.0  0.30419  0.91223  0.93502  1.0000
  I   I313      1.0  0.64453  0.34449  0.30706  1.0000
  I   I314      1.0  0.51838  0.53139  0.36457  1.0000
  I   I315      1.0  0.42735  0.08768  0.96746  1.0000
  I   I316      1.0  0.36913  0.05571  0.35350  1.0000
  I   I317      1.0  0.38514  0.08254  0.41785  1.0000
  I   I318      1.0  0.35173  0.78419  0.02251  1.0000
  I   I319      1.0  0.57327  0.33554  0.58508  1.0000
  I   I320      1.0  0.11683  0.22200  0.95197  1.0000
  I   I321      1.0  0.53379  0.76205  0.76808  1.0000
  I   I322      1.0  0.59209  0.57088  0.59243  1.0000
  I   I323      1.0  0.99404  0.56809  0.66817  1.0000
  I   I324      1.0  0.70505  0.23409  0.39890  1.0000
  I   I325      1.0  0.89510  0.90395  0.86001  1.0000
  I   I326      1.0  0.53885  0.50331  0.99487  1.0000
  I   I327      1.0  0.24618  0.25623  0.32365  1.0000
  I   I328      1.0  0.59129  0.76262  0.57599  1.0000
  I   I329      1.0  0.43049  0.44710  0.09208  1.0000
  I   I330      1.0  0.98492  0.40013  0.27206  1.0000
  I   I331      1.0  0.25198  0.21414  0.38016  1.0000
  I   I332      1.0  0.41429  0.61952  0.34135  1.0000
  I   I333      1.0  0.78294  0.46318  0.01203  1.0000
  I   I334      1.0  0.11931  0.07401  0.88462  1.0000
  I   I335      1.0  0.47329  0.92651  0.11984  1.0000
  I   I336      1.0  0.97756  0.23850  0.68388  1.0000
  I   I337      1.0  0.82311  0.84725  0.21836  1.0000
  I   I338      1.0  0.10812  0.21859  0.33963  1.0000
  I   I339      1.0  0.43730  0.71728  0.49569  1.0000
  I   I340      1.0  0.12158  0.30080  0.20768  1.0000
  I   I341      1.0  0.38232  0.92033  0.62168  1.0000
  I   I342      1.0  0.79698  0.01783  0.73242  1.0000
  I   I343      1.0  0.57549  0.65295  0.86212  1.0000
  I   I344      1.0  0.23793  0.98454  0.54089  1.0000
  I   I345      1.0  0.32963  0.29952  0.52295  1.0000
  I   I346      1.0  0.01767  0.41477  0.58665  1.0000
  I   I347      1.0  0.45014  0.35051  0.87697  1.0000
  I   I348      1.0  0.87417  0.09446  0.65701  1.0000
  I   I349      1.0  0.75157  0.72011  0.67984  1.0000
  I   I350      1.0  0.84176  0.76420  0.46459  1.0000
  I   I351      1.0  0.06803  0.20452  0.88000  1.0000
  I   I352      1.0  0.10665  0.35776  0.69488  1.0000
  I   I353      1.0  0.11161  0.76468  0.47841  1.0000
  I   I354      1.0  0.56862  0.43520  0.00504  1.0000
  I   I355      1.0  0.07547  0.85596  0.20165  1.0000
  I   I356      1.0  0.71695  0.06774  0.31588  1.0000
  I   I357      1.0  0.58655  0.98047  0.98870  1.0000
  I   I358      1.0  0.72984  0.20490  0.18750  1.0000
  I   I359      1.0  0.05716  0.93028  0.45598  1.0000
  I   I360      1.0  0.27093  0.88290  0.94123  1.0000
  I   I361      1.0  0.58438  0.37750  0.33273  1.0000
  I   I362      1.0  0.56704  0.50029  0.32007  1.0000
  I   I363      1.0  0.70810  0.88323  0.22154  1.0000
  I   I364      1.0  0.51779  0.87371  0.42534  1.0000
  I   I365      1.0  0.95663  0.69097  0.70698  1.0000
  I   I366      1.0  0.36331  0.73897  0.93354  1.0000
  I   I367      1.0  0.57721  0.28477  0.53115  1.0000
  I   I368      1.0  0.16756  0.24060  0.17740  1.0000
  I   I369      1.0  0.43738  0.78348  0.79935  1.0000
  I   I370      1.0  0.61207  0.61532  0.60697  1.0000
  I   I371      1.0  0.04576  0.55643  0.68536  1.0000
  I   I372      1.0  0.70191  0.18697  0.43817  1.0000
  I   I373      1.0  0.93385  0.89651  0.76051  1.0000
  I   I374      1.0  0.49821  0.08425  0.49637  1.0000
  I   I375      1.0  0.18958  0.29222  0.37796  1.0000
  I   I376      1.0  0.82991  0.56550  0.34817  1.0000
  I   I377      1.0  0.43245  0.39415  0.14788  1.0000
  I   I378      1.0  0.01683  0.39885  0.10150  1.0000
  I   I379      1.0  0.19920  0.74907  0.17336  1.0000
  I   I380      1.0  0.56382  0.86404  0.99404  1.0000
  I   I381      1.0  0.84545  0.07161  0.74848  1.0000
  I   I382      1.0  0.04138  0.10788  0.93188  1.0000
  I   I383      1.0  0.95602  0.57843  0.92519  1.0000
  I   I384      1.0  0.21198  0.96187  0.79949  1.0000
