data_image0
_chemical_formula_structural       Ti96I384
_chemical_formula_sum              "Ti96 I384"
_cell_length_a       39.8374
_cell_length_b       39.1583
_cell_length_c       22.2396
_cell_angle_alpha    88.7757
_cell_angle_beta     88.7757
_cell_angle_gamma    62.1586

_space_group_name_H-M_alt    "P 1"
_space_group_IT_number       1

loop_
  _space_group_symop_operation_xyz
  'x, y, z'

loop_
  _atom_site_type_symbol
  _atom_site_label
  _atom_site_symmetry_multiplicity
  _atom_site_fract_x
  _atom_site_fract_y
  _atom_site_fract_z
  _atom_site_occupancy
  Ti  Ti1       1.0  0.16177  0.09006  0.15121  1.0000
  Ti  Ti2       1.0  0.17213  0.07864  0.47783  1.0000
  Ti  Ti3       1.0  0.17900  0.08494  0.80043  1.0000
  Ti  Ti4       1.0  0.15791  0.31968  0.33249  1.0000
  Ti  Ti5       1.0  0.16695  0.32525  0.66292  1.0000
  Ti  Ti6       1.0  0.14763  0.31742  0.00700  1.0000
  Ti  Ti7       1.0  0.15993  0.57644  0.40138  1.0000
  Ti  Ti8       1.0  0.13531  0.60883  0.72235  1.0000
  Ti  Ti9       1.0  0.15879  0.58675  0.05236  1.0000
  Ti  Ti10      1.0  0.13220  0.87107  0.25094  1.0000
  Ti  Ti11      1.0  0.12837  0.86248  0.58277  1.0000
  Ti  Ti12      1.0  0.12836  0.89029  0.92152  1.0000
  Ti  Ti13      1.0  0.43728  0.07344  0.26380  1.0000
  Ti  Ti14      1.0  0.45964  0.07563  0.60300  1.0000
  Ti  Ti15      1.0  0.44294  0.06440  0.94072  1.0000
  Ti  Ti16      1.0  0.41122  0.37197  0.32595  1.0000
  Ti  Ti17      1.0  0.41485  0.35386  0.67763  1.0000
  Ti  Ti18      1.0  0.39806  0.36434  0.00593  1.0000
  Ti  Ti19      1.0  0.37184  0.62689  0.27856  1.0000
  Ti  Ti20      1.0  0.37152  0.63789  0.59703  1.0000
  Ti  Ti21      1.0  0.37639  0.60364  0.92493  1.0000
  Ti  Ti22      1.0  0.45149  0.79671  0.12541  1.0000
  Ti  Ti23      1.0  0.45446  0.80695  0.45822  1.0000
  Ti  Ti24      1.0  0.45215  0.80191  0.79619  1.0000
  Ti  Ti25      1.0  0.66263  0.09473  0.28182  1.0000
  Ti  Ti26      1.0  0.65760  0.09655  0.63625  1.0000
  Ti  Ti27      1.0  0.64636  0.11569  0.95723  1.0000
  Ti  Ti28      1.0  0.60244  0.41230  0.27590  1.0000
  Ti  Ti29      1.0  0.60287  0.40794  0.61238  1.0000
  Ti  Ti30      1.0  0.60050  0.41460  0.92749  1.0000
  Ti  Ti31      1.0  0.67744  0.55901  0.12427  1.0000
  Ti  Ti32      1.0  0.66694  0.58078  0.45785  1.0000
  Ti  Ti33      1.0  0.67605  0.57561  0.77326  1.0000
  Ti  Ti34      1.0  0.66886  0.81971  0.21617  1.0000
  Ti  Ti35      1.0  0.67927  0.81608  0.54342  1.0000
  Ti  Ti36      1.0  0.69014  0.82204  0.88991  1.0000
  Ti  Ti37      1.0  0.85062  0.11844  0.21714  1.0000
  Ti  Ti38      1.0  0.87913  0.11668  0.52843  1.0000
  Ti  Ti39      1.0  0.87901  0.12440  0.88591  1.0000
  Ti  Ti40      1.0  0.90527  0.32836  0.16344  1.0000
  Ti  Ti41      1.0  0.89514  0.32726  0.49828  1.0000
  Ti  Ti42      1.0  0.88820  0.33602  0.83148  1.0000
  Ti  Ti43      1.0  0.93430  0.58265  0.25547  1.0000
  Ti  Ti44      1.0  0.92303  0.58303  0.59694  1.0000
  Ti  Ti45      1.0  0.91413  0.56931  0.93526  1.0000
  Ti  Ti46      1.0  0.90437  0.84730  0.33108  1.0000
  Ti  Ti47      1.0  0.90257  0.85266  0.67487  1.0000
  Ti  Ti48      1.0  0.89650  0.83797  0.98020  1.0000
  Ti  Ti49      1.0  0.11348  0.14311  0.96631  1.0000
  Ti  Ti50      1.0  0.09356  0.13710  0.31424  1.0000
  Ti  Ti51      1.0  0.10900  0.14629  0.63203  1.0000
  Ti  Ti52      1.0  0.08750  0.37576  0.19148  1.0000
  Ti  Ti53      1.0  0.09424  0.38291  0.49821  1.0000
  Ti  Ti54      1.0  0.09735  0.37872  0.83490  1.0000
  Ti  Ti55      1.0  0.10843  0.65408  0.22725  1.0000
  Ti  Ti56      1.0  0.08375  0.64828  0.54317  1.0000
  Ti  Ti57      1.0  0.09395  0.66373  0.88886  1.0000
  Ti  Ti58      1.0  0.05638  0.94435  0.08447  1.0000
  Ti  Ti59      1.0  0.05976  0.90782  0.41864  1.0000
  Ti  Ti60      1.0  0.06592  0.92211  0.74246  1.0000
  Ti  Ti61      1.0  0.37261  0.13390  0.11793  1.0000
  Ti  Ti62      1.0  0.39095  0.12812  0.44021  1.0000
  Ti  Ti63      1.0  0.39503  0.12710  0.76829  1.0000
  Ti  Ti64      1.0  0.33237  0.40832  0.18334  1.0000
  Ti  Ti65      1.0  0.34345  0.41321  0.51366  1.0000
  Ti  Ti66      1.0  0.32847  0.39459  0.82966  1.0000
  Ti  Ti67      1.0  0.32250  0.66817  0.08688  1.0000
  Ti  Ti68      1.0  0.29546  0.69240  0.44096  1.0000
  Ti  Ti69      1.0  0.30951  0.67134  0.77261  1.0000
  Ti  Ti70      1.0  0.39848  0.87323  0.95832  1.0000
  Ti  Ti71      1.0  0.37528  0.89634  0.31664  1.0000
  Ti  Ti72      1.0  0.40721  0.87320  0.62796  1.0000
  Ti  Ti73      1.0  0.60120  0.17774  0.11868  1.0000
  Ti  Ti74      1.0  0.61748  0.15868  0.43982  1.0000
  Ti  Ti75      1.0  0.59386  0.17076  0.77967  1.0000
  Ti  Ti76      1.0  0.54266  0.47414  0.11243  1.0000
  Ti  Ti77      1.0  0.54142  0.47117  0.45311  1.0000
  Ti  Ti78      1.0  0.53260  0.47292  0.75638  1.0000
  Ti  Ti79      1.0  0.61767  0.63771  0.94163  1.0000
  Ti  Ti80      1.0  0.60049  0.63159  0.28689  1.0000
  Ti  Ti81      1.0  0.60931  0.64359  0.63106  1.0000
  Ti  Ti82      1.0  0.61911  0.90143  0.05542  1.0000
  Ti  Ti83      1.0  0.62970  0.88166  0.38268  1.0000
  Ti  Ti84      1.0  0.63250  0.88206  0.71488  1.0000
  Ti  Ti85      1.0  0.80784  0.19497  0.05218  1.0000
  Ti  Ti86      1.0  0.80485  0.18660  0.36916  1.0000
  Ti  Ti87      1.0  0.81938  0.18958  0.70637  1.0000
  Ti  Ti88      1.0  0.85406  0.39942  0.01235  1.0000
  Ti  Ti89      1.0  0.84101  0.39331  0.32122  1.0000
  Ti  Ti90      1.0  0.84208  0.40084  0.67431  1.0000
  Ti  Ti91      1.0  0.85465  0.63888  0.10135  1.0000
  Ti  Ti92      1.0  0.86657  0.63831  0.43000  1.0000
  Ti  Ti93      1.0  0.85716  0.63424  0.75972  1.0000
  Ti  Ti94      1.0  0.83820  0.89143  0.14465  1.0000
  Ti  Ti95      1.0  0.83836  0.90145  0.49528  1.0000
  Ti  Ti96      1.0  0.83101  0.91511  0.81991  1.0000
  I   I1        1.0  0.08201  0.11696  0.20626  1.0000
  I   I2        1.0  0.09787  0.10256  0.54782  1.0000
  I   I3        1.0  0.10428  0.11835  0.86091  1.0000
  I   I4        1.0  0.07745  0.34771  0.40412  1.0000
  I   I5        1.0  0.09386  0.34600  0.73226  1.0000
  I   I6        1.0  0.07513  0.35375  0.06851  1.0000
  I   I7        1.0  0.08448  0.60443  0.45329  1.0000
  I   I8        1.0  0.06051  0.64987  0.79546  1.0000
  I   I9        1.0  0.08892  0.62305  0.12580  1.0000
  I   I10       1.0  0.05838  0.87789  0.31333  1.0000
  I   I11       1.0  0.05938  0.88635  0.64713  1.0000
  I   I12       1.0  0.05789  0.89701  0.99303  1.0000
  I   I13       1.0  0.37606  0.08966  0.35337  1.0000
  I   I14       1.0  0.38540  0.09712  0.66833  1.0000
  I   I15       1.0  0.37291  0.08541  0.99856  1.0000
  I   I16       1.0  0.34039  0.37572  0.40460  1.0000
  I   I17       1.0  0.34893  0.34796  0.71481  1.0000
  I   I18       1.0  0.33124  0.36873  0.08688  1.0000
  I   I19       1.0  0.29749  0.64642  0.34126  1.0000
  I   I20       1.0  0.29780  0.64485  0.66809  1.0000
  I   I21       1.0  0.31248  0.62833  0.99726  1.0000
  I   I22       1.0  0.33520  0.89296  0.22655  1.0000
  I   I23       1.0  0.38840  0.84641  0.53204  1.0000
  I   I24       1.0  0.38016  0.85814  0.84952  1.0000
  I   I25       1.0  0.58962  0.12624  0.35776  1.0000
  I   I26       1.0  0.57893  0.13773  0.68157  1.0000
  I   I27       1.0  0.57119  0.16163  0.01973  1.0000
  I   I28       1.0  0.52945  0.44129  0.34132  1.0000
  I   I29       1.0  0.52284  0.43749  0.65826  1.0000
  I   I30       1.0  0.52107  0.44647  0.00905  1.0000
  I   I31       1.0  0.59938  0.59152  0.19107  1.0000
  I   I32       1.0  0.59493  0.60481  0.52801  1.0000
  I   I33       1.0  0.59617  0.61753  0.83436  1.0000
  I   I34       1.0  0.59160  0.87737  0.27818  1.0000
  I   I35       1.0  0.60880  0.86585  0.61024  1.0000
  I   I36       1.0  0.59766  0.87694  0.95446  1.0000
  I   I37       1.0  0.77340  0.16703  0.27484  1.0000
  I   I38       1.0  0.81126  0.15182  0.60615  1.0000
  I   I39       1.0  0.80073  0.16879  0.94086  1.0000
  I   I40       1.0  0.81842  0.37854  0.21724  1.0000
  I   I41       1.0  0.82657  0.36301  0.56629  1.0000
  I   I42       1.0  0.82505  0.39874  0.89701  1.0000
  I   I43       1.0  0.86325  0.60038  0.33308  1.0000
  I   I44       1.0  0.85563  0.59333  0.66911  1.0000
  I   I45       1.0  0.84402  0.59766  0.01182  1.0000
  I   I46       1.0  0.83278  0.86151  0.39944  1.0000
  I   I47       1.0  0.82494  0.87642  0.72568  1.0000
  I   I48       1.0  0.82295  0.86062  0.05013  1.0000
  I   I49       1.0  0.14418  0.15758  0.07423  1.0000
  I   I50       1.0  0.12331  0.15346  0.41913  1.0000
  I   I51       1.0  0.14436  0.15870  0.72979  1.0000
  I   I52       1.0  0.11654  0.39592  0.27343  1.0000
  I   I53       1.0  0.12651  0.39552  0.59627  1.0000
  I   I54       1.0  0.12800  0.38759  0.93767  1.0000
  I   I55       1.0  0.14110  0.65642  0.32699  1.0000
  I   I56       1.0  0.11063  0.67233  0.64294  1.0000
  I   I57       1.0  0.14206  0.65953  0.98760  1.0000
  I   I58       1.0  0.08505  0.95237  0.19130  1.0000
  I   I59       1.0  0.08810  0.93173  0.52125  1.0000
  I   I60       1.0  0.07659  0.95602  0.84693  1.0000
  I   I61       1.0  0.40587  0.15385  0.20333  1.0000
  I   I62       1.0  0.41806  0.15286  0.55158  1.0000
  I   I63       1.0  0.43148  0.13501  0.87554  1.0000
  I   I64       1.0  0.35121  0.44101  0.28138  1.0000
  I   I65       1.0  0.35466  0.43183  0.62893  1.0000
  I   I66       1.0  0.34352  0.42763  0.93354  1.0000
  I   I67       1.0  0.33559  0.69750  0.21220  1.0000
  I   I68       1.0  0.32720  0.71406  0.55030  1.0000
  I   I69       1.0  0.34665  0.68128  0.87018  1.0000
  I   I70       1.0  0.43396  0.87430  0.05976  1.0000
  I   I71       1.0  0.42729  0.88480  0.41974  1.0000
  I   I72       1.0  0.46054  0.86384  0.71394  1.0000
  I   I73       1.0  0.64895  0.17336  0.20613  1.0000
  I   I74       1.0  0.65015  0.16015  0.55900  1.0000
  I   I75       1.0  0.62827  0.18498  0.87836  1.0000
  I   I76       1.0  0.57902  0.48487  0.21241  1.0000
  I   I77       1.0  0.58421  0.47656  0.54824  1.0000
  I   I78       1.0  0.56589  0.48994  0.84980  1.0000
  I   I79       1.0  0.65140  0.63842  0.05346  1.0000
  I   I80       1.0  0.61773  0.65680  0.39522  1.0000
  I   I81       1.0  0.64412  0.66312  0.71389  1.0000
  I   I82       1.0  0.66338  0.88614  0.15953  1.0000
  I   I83       1.0  0.65428  0.89196  0.49064  1.0000
  I   I84       1.0  0.67609  0.89254  0.82300  1.0000
  I   I85       1.0  0.83760  0.19703  0.15911  1.0000
  I   I86       1.0  0.84431  0.19135  0.47006  1.0000
  I   I87       1.0  0.85737  0.19279  0.80077  1.0000
  I   I88       1.0  0.89822  0.40241  0.10741  1.0000
  I   I89       1.0  0.87699  0.39698  0.43222  1.0000
  I   I90       1.0  0.87595  0.41256  0.76983  1.0000
  I   I91       1.0  0.88127  0.66036  0.21329  1.0000
  I   I92       1.0  0.88851  0.65874  0.53518  1.0000
  I   I93       1.0  0.88043  0.64724  0.87176  1.0000
  I   I94       1.0  0.85857  0.91693  0.25484  1.0000
  I   I95       1.0  0.85712  0.92346  0.60719  1.0000
  I   I96       1.0  0.86432  0.91660  0.92902  1.0000
  I   I97       1.0  0.19338  0.11232  0.91101  1.0000
  I   I98       1.0  0.16615  0.12279  0.25354  1.0000
  I   I99       1.0  0.18518  0.11828  0.56463  1.0000
  I   I100      1.0  0.14893  0.36136  0.10711  1.0000
  I   I101      1.0  0.16352  0.36283  0.43114  1.0000
  I   I102      1.0  0.17932  0.34952  0.76808  1.0000
  I   I103      1.0  0.18020  0.60410  0.15626  1.0000
  I   I104      1.0  0.16166  0.61039  0.51087  1.0000
  I   I105      1.0  0.17094  0.61666  0.81987  1.0000
  I   I106      1.0  0.12258  0.93727  0.01517  1.0000
  I   I107      1.0  0.12884  0.90153  0.35816  1.0000
  I   I108      1.0  0.14550  0.89468  0.68293  1.0000
  I   I109      1.0  0.44297  0.10750  0.04213  1.0000
  I   I110      1.0  0.46661  0.09695  0.35976  1.0000
  I   I111      1.0  0.47252  0.09645  0.71293  1.0000
  I   I112      1.0  0.39825  0.40433  0.10421  1.0000
  I   I113      1.0  0.41969  0.39747  0.44110  1.0000
  I   I114      1.0  0.39405  0.40300  0.78659  1.0000
  I   I115      1.0  0.39541  0.63313  0.04359  1.0000
  I   I116      1.0  0.37370  0.66534  0.38976  1.0000
  I   I117      1.0  0.38477  0.64441  0.71580  1.0000
  I   I118      1.0  0.47312  0.82914  0.90240  1.0000
  I   I119      1.0  0.45193  0.83558  0.21817  1.0000
  I   I120      1.0  0.48662  0.81422  0.55813  1.0000
  I   I121      1.0  0.66942  0.14209  0.05101  1.0000
  I   I122      1.0  0.68763  0.10035  0.39465  1.0000
  I   I123      1.0  0.67044  0.12710  0.73517  1.0000
  I   I124      1.0  0.60862  0.44727  0.02963  1.0000
  I   I125      1.0  0.60861  0.44695  0.38118  1.0000
  I   I126      1.0  0.61263  0.44439  0.71605  1.0000
  I   I127      1.0  0.68567  0.61620  0.86438  1.0000
  I   I128      1.0  0.68573  0.59822  0.22246  1.0000
  I   I129      1.0  0.68307  0.61425  0.55547  1.0000
  I   I130      1.0  0.69595  0.85831  0.99327  1.0000
  I   I131      1.0  0.70185  0.83073  0.31518  1.0000
  I   I132      1.0  0.70526  0.84290  0.64580  1.0000
  I   I133      1.0  0.89024  0.15612  0.98162  1.0000
  I   I134      1.0  0.88318  0.13652  0.30887  1.0000
  I   I135      1.0  0.89567  0.14502  0.63184  1.0000
  I   I136      1.0  0.91717  0.35908  0.92891  1.0000
  I   I137      1.0  0.91475  0.35293  0.27747  1.0000
  I   I138      1.0  0.91326  0.36184  0.61394  1.0000
  I   I139      1.0  0.92563  0.61251  0.02819  1.0000
  I   I140      1.0  0.93333  0.62136  0.36559  1.0000
  I   I141      1.0  0.93099  0.61331  0.70746  1.0000
  I   I142      1.0  0.91205  0.87435  0.07592  1.0000
  I   I143      1.0  0.90870  0.88347  0.43067  1.0000
  I   I144      1.0  0.90796  0.88818  0.77775  1.0000
  I   I145      1.0  0.14174  0.07315  0.02172  1.0000
  I   I146      1.0  0.14517  0.05872  0.38184  1.0000
  I   I147      1.0  0.15046  0.06855  0.70495  1.0000
  I   I148      1.0  0.13472  0.29597  0.23215  1.0000
  I   I149      1.0  0.13390  0.30974  0.55722  1.0000
  I   I150      1.0  0.12677  0.30046  0.88345  1.0000
  I   I151      1.0  0.12697  0.57938  0.28981  1.0000
  I   I152      1.0  0.09526  0.58860  0.63340  1.0000
  I   I153      1.0  0.11150  0.59030  0.94943  1.0000
  I   I154      1.0  0.10491  0.86416  0.14159  1.0000
  I   I155      1.0  0.10385  0.83907  0.46576  1.0000
  I   I156      1.0  0.12031  0.85916  0.81838  1.0000
  I   I157      1.0  0.41428  0.05372  0.15888  1.0000
  I   I158      1.0  0.42782  0.05509  0.50724  1.0000
  I   I159      1.0  0.42574  0.04992  0.82463  1.0000
  I   I160      1.0  0.38685  0.33800  0.24378  1.0000
  I   I161      1.0  0.40363  0.33837  0.56049  1.0000
  I   I162      1.0  0.37451  0.32996  0.90705  1.0000
  I   I163      1.0  0.34767  0.60146  0.17924  1.0000
  I   I164      1.0  0.32945  0.62025  0.50478  1.0000
  I   I165      1.0  0.34548  0.58862  0.82587  1.0000
  I   I166      1.0  0.42211  0.79322  0.01030  1.0000
  I   I167      1.0  0.39928  0.82251  0.36981  1.0000
  I   I168      1.0  0.40838  0.80769  0.69416  1.0000
  I   I169      1.0  0.62306  0.09278  0.17826  1.0000
  I   I170      1.0  0.62471  0.09104  0.52221  1.0000
  I   I171      1.0  0.60926  0.10446  0.85697  1.0000
  I   I172      1.0  0.57201  0.39557  0.17865  1.0000
  I   I173      1.0  0.57722  0.39215  0.50580  1.0000
  I   I174      1.0  0.55767  0.40064  0.84671  1.0000
  I   I175      1.0  0.65129  0.55798  0.01122  1.0000
  I   I176      1.0  0.62762  0.56390  0.36696  1.0000
  I   I177      1.0  0.64865  0.56385  0.66961  1.0000
  I   I178      1.0  0.62447  0.83262  0.11812  1.0000
  I   I179      1.0  0.64645  0.80742  0.44744  1.0000
  I   I180      1.0  0.65498  0.80974  0.78500  1.0000
  I   I181      1.0  0.81731  0.12499  0.10309  1.0000
  I   I182      1.0  0.81871  0.12236  0.42980  1.0000
  I   I183      1.0  0.83619  0.12127  0.77557  1.0000
  I   I184      1.0  0.87388  0.32249  0.05743  1.0000
  I   I185      1.0  0.85921  0.32271  0.39148  1.0000
  I   I186      1.0  0.84868  0.33088  0.73464  1.0000
  I   I187      1.0  0.91133  0.55698  0.16321  1.0000
  I   I188      1.0  0.90498  0.55936  0.50104  1.0000
  I   I189      1.0  0.88173  0.55690  0.84133  1.0000
  I   I190      1.0  0.88556  0.82494  0.22106  1.0000
  I   I191      1.0  0.88611  0.83011  0.56487  1.0000
  I   I192      1.0  0.87124  0.82781  0.87721  1.0000
  I   I193      1.0  0.23229  0.06484  0.12115  1.0000
  I   I194      1.0  0.23295  0.06971  0.42303  1.0000
  I   I195      1.0  0.24528  0.06203  0.75715  1.0000
  I   I196      1.0  0.22162  0.31169  0.28627  1.0000
  I   I197      1.0  0.23285  0.31179  0.62295  1.0000
  I   I198      1.0  0.22309  0.29006  0.97428  1.0000
  I   I199      1.0  0.22668  0.56191  0.36027  1.0000
  I   I200      1.0  0.20266  0.56192  0.67964  1.0000
  I   I201      1.0  0.22879  0.56054  0.01431  1.0000
  I   I202      1.0  0.19973  0.86496  0.22999  1.0000
  I   I203      1.0  0.18859  0.84970  0.50884  1.0000
  I   I204      1.0  0.18354  0.89896  0.87569  1.0000
  I   I205      1.0  0.50486  0.05075  0.21261  1.0000
  I   I206      1.0  0.51727  0.06898  0.54593  1.0000
  I   I207      1.0  0.51267  0.04960  0.90448  1.0000
  I   I208      1.0  0.46752  0.37975  0.27671  1.0000
  I   I209      1.0  0.47257  0.36795  0.66994  1.0000
  I   I210      1.0  0.46085  0.35667  0.95180  1.0000
  I   I211      1.0  0.43807  0.62840  0.25532  1.0000
  I   I212      1.0  0.43514  0.63430  0.56166  1.0000
  I   I213      1.0  0.44085  0.60145  0.88767  1.0000
  I   I214      1.0  0.52412  0.76058  0.10275  1.0000
  I   I215      1.0  0.51232  0.78445  0.38917  1.0000
  I   I216      1.0  0.52256  0.75350  0.77691  1.0000
  I   I217      1.0  0.72739  0.06893  0.23099  1.0000
  I   I218      1.0  0.72877  0.06200  0.59149  1.0000
  I   I219      1.0  0.71686  0.09151  0.90980  1.0000
  I   I220      1.0  0.67039  0.40013  0.23199  1.0000
  I   I221      1.0  0.66963  0.38561  0.55976  1.0000
  I   I222      1.0  0.66330  0.39660  0.86790  1.0000
  I   I223      1.0  0.74186  0.54578  0.08004  1.0000
  I   I224      1.0  0.72685  0.55862  0.38889  1.0000
  I   I225      1.0  0.74353  0.56054  0.74395  1.0000
  I   I226      1.0  0.72916  0.77577  0.15112  1.0000
  I   I227      1.0  0.75000  0.78586  0.51076  1.0000
  I   I228      1.0  0.75857  0.78056  0.84540  1.0000
  I   I229      1.0  0.91682  0.08620  0.16310  1.0000
  I   I230      1.0  0.94531  0.09796  0.48271  1.0000
  I   I231      1.0  0.94581  0.09605  0.83488  1.0000
  I   I232      1.0  0.97794  0.29080  0.14225  1.0000
  I   I233      1.0  0.96020  0.30135  0.44616  1.0000
  I   I234      1.0  0.95710  0.30532  0.78178  1.0000
  I   I235      1.0  0.99014  0.58760  0.20835  1.0000
  I   I236      1.0  0.98175  0.57947  0.54056  1.0000
  I   I237      1.0  0.98013  0.55563  0.88290  1.0000
  I   I238      1.0  0.96527  0.84715  0.28617  1.0000
  I   I239      1.0  0.97198  0.83853  0.63582  1.0000
  I   I240      1.0  0.96378  0.80864  0.93842  1.0000
  I   I241      1.0  0.17296  0.02620  0.19977  1.0000
  I   I242      1.0  0.19295  0.01193  0.53379  1.0000
  I   I243      1.0  0.18940  0.02229  0.85220  1.0000
  I   I244      1.0  0.18250  0.25078  0.37989  1.0000
  I   I245      1.0  0.18004  0.25702  0.69633  1.0000
  I   I246      1.0  0.16876  0.24871  0.05347  1.0000
  I   I247      1.0  0.17671  0.50700  0.44501  1.0000
  I   I248      1.0  0.13548  0.54418  0.76948  1.0000
  I   I249      1.0  0.15537  0.52547  0.09662  1.0000
  I   I250      1.0  0.16091  0.80096  0.28484  1.0000
  I   I251      1.0  0.16316  0.79633  0.63331  1.0000
  I   I252      1.0  0.16563  0.82229  0.97504  1.0000
  I   I253      1.0  0.45950  0.00572  0.30693  1.0000
  I   I254      1.0  0.49404  0.00623  0.66266  1.0000
  I   I255      1.0  0.46597  0.99162  0.97727  1.0000
  I   I256      1.0  0.46083  0.30167  0.36730  1.0000
  I   I257      1.0  0.45832  0.28084  0.68946  1.0000
  I   I258      1.0  0.43873  0.29736  0.06509  1.0000
  I   I259      1.0  0.40346  0.56209  0.33714  1.0000
  I   I260      1.0  0.39543  0.56009  0.61145  1.0000
  I   I261      1.0  0.40616  0.53338  0.96512  1.0000
  I   I262      1.0  0.43881  0.74221  0.16265  1.0000
  I   I263      1.0  0.45803  0.73860  0.48274  1.0000
  I   I264      1.0  0.43444  0.74727  0.83772  1.0000
  I   I265      1.0  0.67175  0.02529  0.31874  1.0000
  I   I266      1.0  0.66014  0.03439  0.68536  1.0000
  I   I267      1.0  0.65654  0.04941  0.99430  1.0000
  I   I268      1.0  0.62706  0.34684  0.33492  1.0000
  I   I269      1.0  0.61295  0.34648  0.67555  1.0000
  I   I270      1.0  0.62496  0.34648  0.98211  1.0000
  I   I271      1.0  0.69520  0.49132  0.16409  1.0000
  I   I272      1.0  0.68621  0.51386  0.51499  1.0000
  I   I273      1.0  0.69465  0.51258  0.83042  1.0000
  I   I274      1.0  0.65050  0.76580  0.24808  1.0000
  I   I275      1.0  0.69310  0.75183  0.60260  1.0000
  I   I276      1.0  0.69600  0.75954  0.94133  1.0000
  I   I277      1.0  0.85820  0.05461  0.25627  1.0000
  I   I278      1.0  0.87891  0.05030  0.55643  1.0000
  I   I279      1.0  0.88551  0.05835  0.92272  1.0000
  I   I280      1.0  0.88797  0.27621  0.20900  1.0000
  I   I281      1.0  0.91448  0.25754  0.54084  1.0000
  I   I282      1.0  0.88713  0.27422  0.88421  1.0000
  I   I283      1.0  0.96679  0.51961  0.32052  1.0000
  I   I284      1.0  0.95463  0.51419  0.64691  1.0000
  I   I285      1.0  0.93955  0.50576  0.99464  1.0000
  I   I286      1.0  0.93234  0.77948  0.38940  1.0000
  I   I287      1.0  0.92353  0.78313  0.71495  1.0000
  I   I288      1.0  0.90908  0.77326  0.03378  1.0000
  I   I289      1.0  0.04344  0.16589  0.01013  1.0000
  I   I290      1.0  0.04595  0.12594  0.37553  1.0000
  I   I291      1.0  0.04634  0.15942  0.67511  1.0000
  I   I292      1.0  0.02861  0.37393  0.23908  1.0000
  I   I293      1.0  0.02858  0.39585  0.54660  1.0000
  I   I294      1.0  0.02620  0.40946  0.87675  1.0000
  I   I295      1.0  0.03570  0.67906  0.26068  1.0000
  I   I296      1.0  0.01406  0.66727  0.59182  1.0000
  I   I297      1.0  0.03132  0.69628  0.95335  1.0000
  I   I298      1.0  0.99251  0.95065  0.12527  1.0000
  I   I299      1.0  0.99375  0.91488  0.45351  1.0000
  I   I300      1.0  0.00513  0.92428  0.78614  1.0000
  I   I301      1.0  0.31359  0.12700  0.15559  1.0000
  I   I302      1.0  0.32329  0.14395  0.49015  1.0000
  I   I303      1.0  0.33118  0.15655  0.83091  1.0000
  I   I304      1.0  0.27316  0.40155  0.22797  1.0000
  I   I305      1.0  0.28280  0.40564  0.54847  1.0000
  I   I306      1.0  0.27694  0.37286  0.85367  1.0000
  I   I307      1.0  0.25998  0.68428  0.15757  1.0000
  I   I308      1.0  0.22495  0.71195  0.47308  1.0000
  I   I309      1.0  0.23864  0.68830  0.82210  1.0000
  I   I310      1.0  0.32654  0.90027  0.99938  1.0000
  I   I311      1.0  0.31876  0.93233  0.38400  1.0000
  I   I312      1.0  0.33900  0.91483  0.67799  1.0000
  I   I313      1.0  0.54340  0.19403  0.18650  1.0000
  I   I314      1.0  0.55006  0.20495  0.48892  1.0000
  I   I315      1.0  0.52541  0.20749  0.81924  1.0000
  I   I316      1.0  0.47741  0.48613  0.15786  1.0000
  I   I317      1.0  0.48040  0.47755  0.49872  1.0000
  I   I318      1.0  0.46626  0.48127  0.77790  1.0000
  I   I319      1.0  0.55379  0.65689  0.99619  1.0000
  I   I320      1.0  0.53286  0.64514  0.32641  1.0000
  I   I321      1.0  0.54446  0.65760  0.67556  1.0000
  I   I322      1.0  0.54912  0.93693  0.09707  1.0000
  I   I323      1.0  0.56204  0.91368  0.43957  1.0000
  I   I324      1.0  0.56218  0.90121  0.75090  1.0000
  I   I325      1.0  0.73601  0.23553  0.07898  1.0000
  I   I326      1.0  0.73404  0.23681  0.40754  1.0000
  I   I327      1.0  0.75037  0.21354  0.75227  1.0000
  I   I328      1.0  0.78561  0.43393  0.05685  1.0000
  I   I329      1.0  0.77252  0.42624  0.37824  1.0000
  I   I330      1.0  0.76653  0.43214  0.70556  1.0000
  I   I331      1.0  0.79814  0.64568  0.16808  1.0000
  I   I332      1.0  0.80402  0.64306  0.47368  1.0000
  I   I333      1.0  0.79232  0.64103  0.81305  1.0000
  I   I334      1.0  0.78075  0.89793  0.21538  1.0000
  I   I335      1.0  0.77590  0.91070  0.55780  1.0000
  I   I336      1.0  0.76645  0.93225  0.87371  1.0000
  I   I337      1.0  0.10053  0.21237  0.93044  1.0000
  I   I338      1.0  0.05478  0.20967  0.27085  1.0000
  I   I339      1.0  0.09671  0.21134  0.58275  1.0000
  I   I340      1.0  0.04477  0.44320  0.14843  1.0000
  I   I341      1.0  0.06275  0.45318  0.45876  1.0000
  I   I342      1.0  0.08249  0.44679  0.78294  1.0000
  I   I343      1.0  0.10399  0.71585  0.17074  1.0000
  I   I344      1.0  0.06220  0.71250  0.48794  1.0000
  I   I345      1.0  0.09810  0.72249  0.83745  1.0000
  I   I346      1.0  0.02993  0.01460  0.03482  1.0000
  I   I347      1.0  0.03056  0.98171  0.38772  1.0000
  I   I348      1.0  0.03243  0.99179  0.69663  1.0000
  I   I349      1.0  0.33567  0.19447  0.04888  1.0000
  I   I350      1.0  0.36803  0.19711  0.39614  1.0000
  I   I351      1.0  0.38600  0.19364  0.72676  1.0000
  I   I352      1.0  0.28990  0.47441  0.13525  1.0000
  I   I353      1.0  0.31960  0.48557  0.48456  1.0000
  I   I354      1.0  0.28076  0.46279  0.79801  1.0000
  I   I355      1.0  0.31012  0.73637  0.03693  1.0000
  I   I356      1.0  0.27379  0.75788  0.38881  1.0000
  I   I357      1.0  0.28273  0.74679  0.75866  1.0000
  I   I358      1.0  0.38185  0.94484  0.93089  1.0000
  I   I359      1.0  0.38794  0.95269  0.27513  1.0000
  I   I360      1.0  0.40586  0.93598  0.58863  1.0000
  I   I361      1.0  0.58539  0.24804  0.07283  1.0000
  I   I362      1.0  0.64696  0.20659  0.41872  1.0000
  I   I363      1.0  0.58735  0.22971  0.70856  1.0000
  I   I364      1.0  0.52057  0.54596  0.08420  1.0000
  I   I365      1.0  0.51974  0.54249  0.41650  1.0000
  I   I366      1.0  0.51253  0.53652  0.68667  1.0000
  I   I367      1.0  0.60133  0.70905  0.90918  1.0000
  I   I368      1.0  0.58049  0.70251  0.24872  1.0000
  I   I369      1.0  0.58262  0.71385  0.58499  1.0000
  I   I370      1.0  0.62936  0.95919  0.01623  1.0000
  I   I371      1.0  0.64377  0.93723  0.34141  1.0000
  I   I372      1.0  0.62148  0.94954  0.68193  1.0000
  I   I373      1.0  0.81003  0.25501  0.00571  1.0000
  I   I374      1.0  0.80349  0.25213  0.33058  1.0000
  I   I375      1.0  0.81064  0.25651  0.65975  1.0000
  I   I376      1.0  0.85289  0.46666  0.98942  1.0000
  I   I377      1.0  0.83286  0.46100  0.27806  1.0000
  I   I378      1.0  0.82740  0.46401  0.60954  1.0000
  I   I379      1.0  0.82778  0.70219  0.04544  1.0000
  I   I380      1.0  0.84137  0.71273  0.40285  1.0000
  I   I381      1.0  0.83652  0.70102  0.70770  1.0000
  I   I382      1.0  0.81256  0.96197  0.09772  1.0000
  I   I383      1.0  0.80112  0.97422  0.46506  1.0000
  I   I384      1.0  0.80441  0.98727  0.77839  1.0000
