data_image0
_chemical_formula_structural       Ti96I384
_chemical_formula_sum              "Ti96 I384"
_cell_length_a       80.5167
_cell_length_b       79.9664
_cell_length_c       39.1473
_cell_angle_alpha    88.7757
_cell_angle_beta     88.7757
_cell_angle_gamma    62.1586

_space_group_name_H-M_alt    "P 1"
_space_group_IT_number       1

loop_
  _space_group_symop_operation_xyz
  'x, y, z'

loop_
  _atom_site_type_symbol
  _atom_site_label
  _atom_site_symmetry_multiplicity
  _atom_site_fract_x
  _atom_site_fract_y
  _atom_site_fract_z
  _atom_site_occupancy
  Ti  Ti1       1.0  0.73401  0.55427  0.35104  1.0000
  Ti  Ti2       1.0  0.68138  0.03338  0.62137  1.0000
  Ti  Ti3       1.0  0.95222  0.00036  0.17822  1.0000
  Ti  Ti4       1.0  0.44116  0.85002  0.91703  1.0000
  Ti  Ti5       1.0  0.94037  0.54221  0.62010  1.0000
  Ti  Ti6       1.0  0.14387  0.88179  0.57519  1.0000
  Ti  Ti7       1.0  0.33396  0.31839  0.95480  1.0000
  Ti  Ti8       1.0  0.48615  0.50312  0.04355  1.0000
  Ti  Ti9       1.0  0.02764  0.15885  0.73742  1.0000
  Ti  Ti10      1.0  0.89386  0.31464  0.10244  1.0000
  Ti  Ti11      1.0  0.28875  0.78303  0.65330  1.0000
  Ti  Ti12      1.0  0.45215  0.93550  0.39327  1.0000
  Ti  Ti13      1.0  0.55954  0.55381  0.33562  1.0000
  Ti  Ti14      1.0  0.44862  0.80299  0.94367  1.0000
  Ti  Ti15      1.0  0.68379  0.25899  0.72790  1.0000
  Ti  Ti16      1.0  0.84993  0.59388  0.95995  1.0000
  Ti  Ti17      1.0  0.52428  0.03253  0.49913  1.0000
  Ti  Ti18      1.0  0.54217  0.37522  0.47824  1.0000
  Ti  Ti19      1.0  0.76099  0.21647  0.11375  1.0000
  Ti  Ti20      1.0  0.63669  0.74345  0.46310  1.0000
  Ti  Ti21      1.0  0.41975  0.51602  0.69359  1.0000
  Ti  Ti22      1.0  0.41293  0.25644  0.98026  1.0000
  Ti  Ti23      1.0  0.38071  0.21244  0.78815  1.0000
  Ti  Ti24      1.0  0.82544  0.46061  0.49364  1.0000
  Ti  Ti25      1.0  0.94867  0.02325  0.95450  1.0000
  Ti  Ti26      1.0  0.25378  0.71787  0.28759  1.0000
  Ti  Ti27      1.0  0.90007  0.81127  0.55934  1.0000
  Ti  Ti28      1.0  0.31134  0.18578  0.03299  1.0000
  Ti  Ti29      1.0  0.98574  0.62143  0.51410  1.0000
  Ti  Ti30      1.0  0.35964  0.65645  0.69635  1.0000
  Ti  Ti31      1.0  0.88443  0.89490  0.35302  1.0000
  Ti  Ti32      1.0  0.10629  0.25559  0.79031  1.0000
  Ti  Ti33      1.0  0.79772  0.28452  0.33724  1.0000
  Ti  Ti34      1.0  0.65587  0.65971  0.81552  1.0000
  Ti  Ti35      1.0  0.40902  0.02366  0.00854  1.0000
  Ti  Ti36      1.0  0.15184  0.87151  0.01290  1.0000
  Ti  Ti37      1.0  0.29222  0.92860  0.03871  1.0000
  Ti  Ti38      1.0  0.50232  0.62108  0.65838  1.0000
  Ti  Ti39      1.0  0.88866  0.33189  0.01601  1.0000
  Ti  Ti40      1.0  0.52650  0.10205  0.13013  1.0000
  Ti  Ti41      1.0  0.26672  0.97395  0.55651  1.0000
  Ti  Ti42      1.0  0.40345  0.38843  0.84811  1.0000
  Ti  Ti43      1.0  0.37546  0.59905  0.17204  1.0000
  Ti  Ti44      1.0  0.41675  0.46079  0.23222  1.0000
  Ti  Ti45      1.0  0.81046  0.12695  0.25940  1.0000
  Ti  Ti46      1.0  0.62455  0.87791  0.42696  1.0000
  Ti  Ti47      1.0  0.19588  0.56951  0.57189  1.0000
  Ti  Ti48      1.0  0.46238  0.94130  0.07159  1.0000
  Ti  Ti49      1.0  0.51954  0.00983  0.28555  1.0000
  Ti  Ti50      1.0  0.14191  0.27907  0.51289  1.0000
  Ti  Ti51      1.0  0.54870  0.01358  0.81200  1.0000
  Ti  Ti52      1.0  0.87832  0.52124  0.38292  1.0000
  Ti  Ti53      1.0  0.64427  0.32429  0.90534  1.0000
  Ti  Ti54      1.0  0.76852  0.99539  0.67329  1.0000
  Ti  Ti55      1.0  0.99646  0.72115  0.09832  1.0000
  Ti  Ti56      1.0  0.75193  0.03442  0.84157  1.0000
  Ti  Ti57      1.0  0.99433  0.16463  0.70441  1.0000
  Ti  Ti58      1.0  0.99306  0.84987  0.21706  1.0000
  Ti  Ti59      1.0  0.83363  0.56491  0.96838  1.0000
  Ti  Ti60      1.0  0.77988  0.15865  0.11190  1.0000
  Ti  Ti61      1.0  0.59687  0.18209  0.33835  1.0000
  Ti  Ti62      1.0  0.55822  0.51823  0.39571  1.0000
  Ti  Ti63      1.0  0.19774  0.69068  0.61877  1.0000
  Ti  Ti64      1.0  0.57223  0.35204  0.43440  1.0000
  Ti  Ti65      1.0  0.25058  0.12302  0.52218  1.0000
  Ti  Ti66      1.0  0.17589  0.01463  0.87343  1.0000
  Ti  Ti67      1.0  0.66379  0.78725  0.70668  1.0000
  Ti  Ti68      1.0  0.12293  0.64020  0.16366  1.0000
  Ti  Ti69      1.0  0.24578  0.74951  0.24818  1.0000
  Ti  Ti70      1.0  0.14011  0.85273  0.35070  1.0000
  Ti  Ti71      1.0  0.82550  0.44844  0.06253  1.0000
  Ti  Ti72      1.0  0.30563  0.27131  0.72255  1.0000
  Ti  Ti73      1.0  0.34378  0.66234  0.51730  1.0000
  Ti  Ti74      1.0  0.89765  0.03482  0.92294  1.0000
  Ti  Ti75      1.0  0.49708  0.00321  0.20588  1.0000
  Ti  Ti76      1.0  0.66069  0.65448  0.40479  1.0000
  Ti  Ti77      1.0  0.67217  0.25472  0.63661  1.0000
  Ti  Ti78      1.0  0.99565  0.56763  0.45192  1.0000
  Ti  Ti79      1.0  0.86781  0.00294  0.55150  1.0000
  Ti  Ti80      1.0  0.17250  0.42147  0.04932  1.0000
  Ti  Ti81      1.0  0.56256  0.25924  0.84277  1.0000
  Ti  Ti82      1.0  0.43373  0.67717  0.09451  1.0000
  Ti  Ti83      1.0  0.87187  0.11770  0.26746  1.0000
  Ti  Ti84      1.0  0.17367  0.87387  0.91426  1.0000
  Ti  Ti85      1.0  0.26786  0.96038  0.10163  1.0000
  Ti  Ti86      1.0  0.30997  0.35167  0.88720  1.0000
  Ti  Ti87      1.0  0.79206  0.78609  0.74401  1.0000
  Ti  Ti88      1.0  0.75014  0.21131  0.89893  1.0000
  Ti  Ti89      1.0  0.88986  0.09800  0.78435  1.0000
  Ti  Ti90      1.0  0.54362  0.96647  0.49704  1.0000
  Ti  Ti91      1.0  0.54627  0.34528  0.28509  1.0000
  Ti  Ti92      1.0  0.72480  0.41883  0.11415  1.0000
  Ti  Ti93      1.0  0.42851  0.87002  0.69016  1.0000
  Ti  Ti94      1.0  0.49815  0.93639  0.03708  1.0000
  Ti  Ti95      1.0  0.32016  0.82616  0.92449  1.0000
  Ti  Ti96      1.0  0.04263  0.14027  0.97117  1.0000
  I   I1        1.0  0.21056  0.55137  0.51150  1.0000
  I   I2        1.0  0.56931  0.00522  0.86567  1.0000
  I   I3        1.0  0.48381  0.01431  0.30960  1.0000
  I   I4        1.0  0.63603  0.34989  0.85300  1.0000
  I   I5        1.0  0.11637  0.90014  0.61629  1.0000
  I   I6        1.0  0.75434  0.97919  0.71391  1.0000
  I   I7        1.0  0.48193  0.47654  0.07961  1.0000
  I   I8        1.0  0.73724  0.01277  0.85217  1.0000
  I   I9        1.0  0.04184  0.12340  0.75475  1.0000
  I   I10       1.0  0.55660  0.10147  0.15793  1.0000
  I   I11       1.0  0.31398  0.78669  0.61625  1.0000
  I   I12       1.0  0.91214  0.53767  0.63079  1.0000
  I   I13       1.0  0.58173  0.53577  0.28187  1.0000
  I   I14       1.0  0.16564  0.72012  0.62563  1.0000
  I   I15       1.0  0.70574  0.23014  0.66598  1.0000
  I   I16       1.0  0.51277  0.13569  0.10593  1.0000
  I   I17       1.0  0.15286  0.04016  0.83008  1.0000
  I   I18       1.0  0.60603  0.34557  0.41294  1.0000
  I   I19       1.0  0.21071  0.69154  0.55441  1.0000
  I   I20       1.0  0.26531  0.78595  0.60741  1.0000
  I   I21       1.0  0.47365  0.49296  0.99053  1.0000
  I   I22       1.0  0.56132  0.28086  0.88646  1.0000
  I   I23       1.0  0.73764  0.24595  0.89238  1.0000
  I   I24       1.0  0.13816  0.83595  0.29381  1.0000
  I   I25       1.0  0.98476  0.00575  0.94065  1.0000
  I   I26       1.0  0.50483  0.03703  0.24258  1.0000
  I   I27       1.0  0.41163  0.03712  0.06876  1.0000
  I   I28       1.0  0.33544  0.17182  0.98065  1.0000
  I   I29       1.0  0.97943  0.54829  0.48037  1.0000
  I   I30       1.0  0.39058  0.63016  0.68098  1.0000
  I   I31       1.0  0.15332  0.42266  0.99409  1.0000
  I   I32       1.0  0.54042  0.28002  0.79190  1.0000
  I   I33       1.0  0.83517  0.03549  0.54104  1.0000
  I   I34       1.0  0.43159  0.00236  0.96018  1.0000
  I   I35       1.0  0.20242  0.83855  0.91683  1.0000
  I   I36       1.0  0.62927  0.65021  0.79680  1.0000
  I   I37       1.0  0.27326  0.91691  0.99380  1.0000
  I   I38       1.0  0.85789  0.32761  0.12010  1.0000
  I   I39       1.0  0.24213  0.99647  0.10372  1.0000
  I   I40       1.0  0.40761  0.49019  0.19709  1.0000
  I   I41       1.0  0.12178  0.26156  0.50613  1.0000
  I   I42       1.0  0.50191  0.10350  0.17417  1.0000
  I   I43       1.0  0.00350  0.81325  0.18613  1.0000
  I   I44       1.0  0.78048  0.15828  0.26066  1.0000
  I   I45       1.0  0.90097  0.08551  0.30473  1.0000
  I   I46       1.0  0.30901  0.80131  0.90758  1.0000
  I   I47       1.0  0.19714  0.59857  0.54844  1.0000
  I   I48       1.0  0.47414  0.97092  0.05655  1.0000
  I   I49       1.0  0.53090  0.97807  0.24185  1.0000
  I   I50       1.0  0.70559  0.03880  0.58242  1.0000
  I   I51       1.0  0.54883  0.02510  0.75323  1.0000
  I   I52       1.0  0.17675  0.44813  0.08395  1.0000
  I   I53       1.0  0.62432  0.31312  0.86722  1.0000
  I   I54       1.0  0.75784  0.03049  0.68372  1.0000
  I   I55       1.0  0.35218  0.32408  0.87853  1.0000
  I   I56       1.0  0.39721  0.54422  0.64935  1.0000
  I   I57       1.0  0.31636  0.83906  0.98791  1.0000
  I   I58       1.0  0.91358  0.28133  0.13249  1.0000
  I   I59       1.0  0.80675  0.55859  0.99824  1.0000
  I   I60       1.0  0.81134  0.13115  0.08509  1.0000
  I   I61       1.0  0.56759  0.48232  0.40663  1.0000
  I   I62       1.0  0.53791  0.58308  0.30610  1.0000
  I   I63       1.0  0.64693  0.76789  0.43485  1.0000
  I   I64       1.0  0.86424  0.55921  0.99985  1.0000
  I   I65       1.0  0.53194  0.07922  0.08196  1.0000
  I   I66       1.0  0.32367  0.18608  0.09794  1.0000
  I   I67       1.0  0.74235  0.23582  0.16346  1.0000
  I   I68       1.0  0.63938  0.74304  0.53120  1.0000
  I   I69       1.0  0.22655  0.71856  0.24153  1.0000
  I   I70       1.0  0.12798  0.88821  0.34128  1.0000
  I   I71       1.0  0.40243  0.20694  0.83838  1.0000
  I   I72       1.0  0.33174  0.24120  0.69240  1.0000
  I   I73       1.0  0.89341  0.83515  0.51429  1.0000
  I   I74       1.0  0.27111  0.71413  0.21828  1.0000
  I   I75       1.0  0.27224  0.76015  0.23042  1.0000
  I   I76       1.0  0.68670  0.27348  0.60065  1.0000
  I   I77       1.0  0.65689  0.24836  0.70765  1.0000
  I   I78       1.0  0.89336  0.87965  0.41638  1.0000
  I   I79       1.0  0.82489  0.26257  0.29811  1.0000
  I   I80       1.0  0.74773  0.56895  0.30555  1.0000
  I   I81       1.0  0.11882  0.22642  0.75159  1.0000
  I   I82       1.0  0.46850  0.66347  0.06614  1.0000
  I   I83       1.0  0.81377  0.11851  0.32547  1.0000
  I   I84       1.0  0.17053  0.89188  0.96965  1.0000
  I   I85       1.0  0.30365  0.92298  0.10443  1.0000
  I   I86       1.0  0.30070  0.16127  0.05751  1.0000
  I   I87       1.0  0.90724  0.34930  0.99531  1.0000
  I   I88       1.0  0.88463  0.35442  0.07150  1.0000
  I   I89       1.0  0.67294  0.67173  0.77031  1.0000
  I   I90       1.0  0.17312  0.25326  0.48448  1.0000
  I   I91       1.0  0.53922  0.31604  0.29464  1.0000
  I   I92       1.0  0.71367  0.40093  0.07627  1.0000
  I   I93       1.0  0.44110  0.45733  0.27971  1.0000
  I   I94       1.0  0.47873  0.91562  0.02339  1.0000
  I   I95       1.0  0.62120  0.90802  0.39640  1.0000
  I   I96       1.0  0.43828  0.26850  0.95716  1.0000
  I   I97       1.0  0.91185  0.01479  0.19005  1.0000
  I   I98       1.0  0.70323  0.58239  0.37019  1.0000
  I   I99       1.0  0.68892  0.01597  0.68171  1.0000
  I   I100      1.0  0.42463  0.79596  0.98093  1.0000
  I   I101      1.0  0.78619  0.19546  0.88476  1.0000
  I   I102      1.0  0.96391  0.50567  0.61279  1.0000
  I   I103      1.0  0.27769  0.35845  0.85816  1.0000
  I   I104      1.0  0.99747  0.74552  0.14288  1.0000
  I   I105      1.0  0.27547  0.97928  0.49704  1.0000
  I   I106      1.0  0.46518  0.91517  0.45207  1.0000
  I   I107      1.0  0.89713  0.29801  0.98136  1.0000
  I   I108      1.0  0.43002  0.92171  0.36901  1.0000
  I   I109      1.0  0.67733  0.25910  0.79741  1.0000
  I   I110      1.0  0.56210  0.52008  0.46429  1.0000
  I   I111      1.0  0.60261  0.76595  0.44819  1.0000
  I   I112      1.0  0.54811  0.40241  0.48780  1.0000
  I   I113      1.0  0.25229  0.15488  0.52770  1.0000
  I   I114      1.0  0.53645  0.05528  0.51203  1.0000
  I   I115      1.0  0.62978  0.78840  0.72616  1.0000
  I   I116      1.0  0.65749  0.81334  0.75441  1.0000
  I   I117      1.0  0.10659  0.67472  0.13171  1.0000
  I   I118      1.0  0.07183  0.13067  0.93224  1.0000
  I   I119      1.0  0.69935  0.76403  0.69380  1.0000
  I   I120      1.0  0.22340  0.55727  0.62014  1.0000
  I   I121      1.0  0.32931  0.69994  0.52295  1.0000
  I   I122      1.0  0.95169  0.05493  0.95603  1.0000
  I   I123      1.0  0.48034  0.98058  0.21874  1.0000
  I   I124      1.0  0.33528  0.65082  0.66604  1.0000
  I   I125      1.0  0.69372  0.62920  0.41013  1.0000
  I   I126      1.0  0.98449  0.58110  0.38895  1.0000
  I   I127      1.0  0.77532  0.30467  0.28749  1.0000
  I   I128      1.0  0.46823  0.81163  0.99031  1.0000
  I   I129      1.0  0.40188  0.22367  0.74070  1.0000
  I   I130      1.0  0.13485  0.85516  0.04799  1.0000
  I   I131      1.0  0.45060  0.65903  0.16031  1.0000
  I   I132      1.0  0.37462  0.03159  0.00810  1.0000
  I   I133      1.0  0.92407  0.30105  0.05138  1.0000
  I   I134      1.0  0.54083  0.59959  0.62998  1.0000
  I   I135      1.0  0.18897  0.03890  0.87341  1.0000
  I   I136      1.0  0.40786  0.35279  0.81782  1.0000
  I   I137      1.0  0.85595  0.53092  0.43396  1.0000
  I   I138      1.0  0.85642  0.11230  0.75281  1.0000
  I   I139      1.0  0.53485  0.38029  0.30283  1.0000
  I   I140      1.0  0.72383  0.44202  0.06812  1.0000
  I   I141      1.0  0.39344  0.88493  0.65724  1.0000
  I   I142      1.0  0.52903  0.93653  0.05919  1.0000
  I   I143      1.0  0.93356  0.03007  0.22920  1.0000
  I   I144      1.0  0.40859  0.23981  0.93208  1.0000
  I   I145      1.0  0.74184  0.51856  0.34131  1.0000
  I   I146      1.0  0.67486  0.01045  0.58962  1.0000
  I   I147      1.0  0.96071  0.01609  0.12618  1.0000
  I   I148      1.0  0.88160  0.54773  0.34955  1.0000
  I   I149      1.0  0.94171  0.56253  0.67723  1.0000
  I   I150      1.0  0.17696  0.86831  0.59981  1.0000
  I   I151      1.0  0.96131  0.73014  0.07906  1.0000
  I   I152      1.0  0.46042  0.53868  0.06817  1.0000
  I   I153      1.0  0.04553  0.15690  0.67796  1.0000
  I   I154      1.0  0.34821  0.59511  0.13997  1.0000
  I   I155      1.0  0.27551  0.80361  0.70551  1.0000
  I   I156      1.0  0.76003  0.14632  0.07937  1.0000
  I   I157      1.0  0.63618  0.27700  0.62998  1.0000
  I   I158      1.0  0.18937  0.66452  0.59417  1.0000
  I   I159      1.0  0.57402  0.21847  0.33741  1.0000
  I   I160      1.0  0.57429  0.32130  0.40447  1.0000
  I   I161      1.0  0.57466  0.94493  0.52282  1.0000
  I   I162      1.0  0.52245  0.37460  0.53910  1.0000
  I   I163      1.0  0.76593  0.18613  0.05344  1.0000
  I   I164      1.0  0.62979  0.84271  0.42068  1.0000
  I   I165      1.0  0.44720  0.48168  0.68287  1.0000
  I   I166      1.0  0.03419  0.17627  0.98374  1.0000
  I   I167      1.0  0.59824  0.24897  0.82731  1.0000
  I   I168      1.0  0.84736  0.42934  0.53381  1.0000
  I   I169      1.0  0.87042  0.04211  0.88009  1.0000
  I   I170      1.0  0.88342  0.06922  0.94080  1.0000
  I   I171      1.0  0.92120  0.78052  0.53061  1.0000
  I   I172      1.0  0.64057  0.63712  0.39219  1.0000
  I   I173      1.0  0.01668  0.58471  0.48537  1.0000
  I   I174      1.0  0.35843  0.64557  0.75990  1.0000
  I   I175      1.0  0.85992  0.92479  0.31883  1.0000
  I   I176      1.0  0.11810  0.25073  0.85604  1.0000
  I   I177      1.0  0.88636  0.01905  0.51805  1.0000
  I   I178      1.0  0.42931  0.68222  0.02204  1.0000
  I   I179      1.0  0.79804  0.10589  0.23821  1.0000
  I   I180      1.0  0.17680  0.89831  0.86105  1.0000
  I   I181      1.0  0.42514  0.96844  0.41777  1.0000
  I   I182      1.0  0.34903  0.34363  0.95449  1.0000
  I   I183      1.0  0.81219  0.80593  0.75429  1.0000
  I   I184      1.0  0.74242  0.20429  0.96097  1.0000
  I   I185      1.0  0.89261  0.10313  0.85157  1.0000
  I   I186      1.0  0.36962  0.40590  0.82244  1.0000
  I   I187      1.0  0.75980  0.38832  0.11795  1.0000
  I   I188      1.0  0.38951  0.46097  0.26290  1.0000
  I   I189      1.0  0.81405  0.74790  0.76316  1.0000
  I   I190      1.0  0.59444  0.88774  0.46385  1.0000
  I   I191      1.0  0.54214  0.02348  0.43942  1.0000
  I   I192      1.0  0.94703  0.97367  0.15717  1.0000
  I   I193      1.0  0.97245  0.59913  0.48733  1.0000
  I   I194      1.0  0.66765  0.70607  0.46026  1.0000
  I   I195      1.0  0.98468  0.98409  0.20845  1.0000
  I   I196      1.0  0.42663  0.87167  0.98264  1.0000
  I   I197      1.0  0.99663  0.85997  0.28157  1.0000
  I   I198      1.0  0.13964  0.86299  0.53195  1.0000
  I   I199      1.0  0.13569  0.26064  0.78339  1.0000
  I   I200      1.0  0.73147  0.05313  0.79056  1.0000
  I   I201      1.0  0.96144  0.18209  0.67932  1.0000
  I   I202      1.0  0.87335  0.60570  0.98371  1.0000
  I   I203      1.0  0.28878  0.68510  0.28275  1.0000
  I   I204      1.0  0.46678  0.94023  0.33291  1.0000
  I   I205      1.0  0.54318  0.52814  0.33215  1.0000
  I   I206      1.0  0.47406  0.76826  0.93705  1.0000
  I   I207      1.0  0.71562  0.26463  0.71845  1.0000
  I   I208      1.0  0.86417  0.57307  0.90394  1.0000
  I   I209      1.0  0.51931  0.96055  0.52693  1.0000
  I   I210      1.0  0.87379  0.96757  0.53465  1.0000
  I   I211      1.0  0.16913  0.83215  0.38892  1.0000
  I   I212      1.0  0.21668  0.69980  0.65969  1.0000
  I   I213      1.0  0.22079  0.78037  0.22305  1.0000
  I   I214      1.0  0.39109  0.27524  0.03383  1.0000
  I   I215      1.0  0.34759  0.21951  0.80366  1.0000
  I   I216      1.0  0.41662  0.90052  0.73458  1.0000
  I   I217      1.0  0.94729  0.01844  0.02123  1.0000
  I   I218      1.0  0.50270  0.99568  0.14257  1.0000
  I   I219      1.0  0.31442  0.65623  0.50461  1.0000
  I   I220      1.0  0.67924  0.22021  0.60040  1.0000
  I   I221      1.0  0.00853  0.63973  0.50760  1.0000
  I   I222      1.0  0.63894  0.68088  0.45058  1.0000
  I   I223      1.0  0.90685  0.90044  0.31237  1.0000
  I   I224      1.0  0.07088  0.26459  0.78020  1.0000
  I   I225      1.0  0.78608  0.26033  0.34665  1.0000
  I   I226      1.0  0.43367  0.70707  0.12889  1.0000
  I   I227      1.0  0.40750  0.05441  0.98251  1.0000
  I   I228      1.0  0.14442  0.86882  0.94092  1.0000
  I   I229      1.0  0.99935  0.87893  0.19999  1.0000
  I   I230      1.0  0.50083  0.58706  0.65557  1.0000
  I   I231      1.0  0.90120  0.32228  0.16158  1.0000
  I   I232      1.0  0.41851  0.83664  0.93688  1.0000
  I   I233      1.0  0.24793  0.95353  0.53923  1.0000
  I   I234      1.0  0.49143  0.05278  0.53105  1.0000
  I   I235      1.0  0.36392  0.60606  0.23408  1.0000
  I   I236      1.0  0.45432  0.83918  0.66094  1.0000
  I   I237      1.0  0.53643  0.35295  0.22012  1.0000
  I   I238      1.0  0.35578  0.81717  0.90277  1.0000
  I   I239      1.0  0.05454  0.13343  0.03466  1.0000
  I   I240      1.0  0.43168  0.96003  0.03754  1.0000
  I   I241      1.0  0.76157  0.55516  0.38660  1.0000
  I   I242      1.0  0.65161  0.06418  0.62444  1.0000
  I   I243      1.0  0.13548  0.65417  0.20679  1.0000
  I   I244      1.0  0.73506  0.19705  0.85770  1.0000
  I   I245      1.0  0.67489  0.30358  0.86915  1.0000
  I   I246      1.0  0.14130  0.91261  0.54193  1.0000
  I   I247      1.0  0.31720  0.32104  0.01336  1.0000
  I   I248      1.0  0.41908  0.54005  0.73653  1.0000
  I   I249      1.0  0.05064  0.16646  0.77235  1.0000
  I   I250      1.0  0.81517  0.57263  0.91342  1.0000
  I   I251      1.0  0.32343  0.74199  0.65582  1.0000
  I   I252      1.0  0.78376  0.18609  0.14775  1.0000
  I   I253      1.0  0.55999  0.56647  0.39949  1.0000
  I   I254      1.0  0.46071  0.87038  0.90747  1.0000
  I   I255      1.0  0.62171  0.16523  0.29161  1.0000
  I   I256      1.0  0.22455  0.12743  0.57081  1.0000
  I   I257      1.0  0.32311  0.91060  0.01230  1.0000
  I   I258      1.0  0.58131  0.34111  0.49930  1.0000
  I   I259      1.0  0.65361  0.79719  0.64657  1.0000
  I   I260      1.0  0.64913  0.87776  0.46365  1.0000
  I   I261      1.0  0.39321  0.50737  0.71434  1.0000
  I   I262      1.0  0.43912  0.22673  0.01095  1.0000
  I   I263      1.0  0.83454  0.45581  0.12695  1.0000
  I   I264      1.0  0.11801  0.90171  0.01503  1.0000
  I   I265      1.0  0.93357  0.99748  0.95683  1.0000
  I   I266      1.0  0.25834  0.69605  0.34264  1.0000
  I   I267      1.0  0.38028  0.64259  0.52771  1.0000
  I   I268      1.0  0.19798  0.99858  0.93051  1.0000
  I   I269      1.0  0.02542  0.53938  0.42558  1.0000
  I   I270      1.0  0.28952  0.21593  0.00458  1.0000
  I   I271      1.0  0.88043  0.86604  0.33415  1.0000
  I   I272      1.0  0.54765  0.23888  0.86940  1.0000
  I   I273      1.0  0.81166  0.30497  0.36810  1.0000
  I   I274      1.0  0.24762  0.00012  0.59839  1.0000
  I   I275      1.0  0.92695  0.81487  0.58967  1.0000
  I   I276      1.0  0.15975  0.87468  0.84830  1.0000
  I   I277      1.0  0.39674  0.70020  0.08973  1.0000
  I   I278      1.0  0.51486  0.62492  0.71600  1.0000
  I   I279      1.0  0.41452  0.44120  0.18347  1.0000
  I   I280      1.0  0.90866  0.48995  0.40071  1.0000
  I   I281      1.0  0.30286  0.94837  0.56712  1.0000
  I   I282      1.0  0.43419  0.37785  0.81443  1.0000
  I   I283      1.0  0.40300  0.56251  0.16311  1.0000
  I   I284      1.0  0.83321  0.48791  0.46843  1.0000
  I   I285      1.0  0.77046  0.80200  0.79947  1.0000
  I   I286      1.0  0.29896  0.86124  0.90552  1.0000
  I   I287      1.0  0.29296  0.27552  0.78566  1.0000
  I   I288      1.0  0.49546  0.92983  0.11150  1.0000
  I   I289      1.0  0.38712  0.61872  0.13410  1.0000
  I   I290      1.0  0.54591  0.96720  0.43174  1.0000
  I   I291      1.0  0.51236  0.02366  0.81686  1.0000
  I   I292      1.0  0.86149  0.51167  0.33498  1.0000
  I   I293      1.0  0.64192  0.32493  0.97761  1.0000
  I   I294      1.0  0.74571  0.99250  0.62380  1.0000
  I   I295      1.0  0.31120  0.31506  0.90525  1.0000
  I   I296      1.0  0.75563  0.05392  0.89207  1.0000
  I   I297      1.0  0.00902  0.13154  0.67597  1.0000
  I   I298      1.0  0.96182  0.86264  0.17918  1.0000
  I   I299      1.0  0.84771  0.53030  0.93625  1.0000
  I   I300      1.0  0.41307  0.86303  0.74847  1.0000
  I   I301      1.0  0.58243  0.15493  0.33539  1.0000
  I   I302      1.0  0.52113  0.54192  0.40896  1.0000
  I   I303      1.0  0.28532  0.10266  0.54269  1.0000
  I   I304      1.0  0.54338  0.38575  0.40682  1.0000
  I   I305      1.0  0.83874  0.61747  0.90439  1.0000
  I   I306      1.0  0.36166  0.28114  0.95264  1.0000
  I   I307      1.0  0.28786  0.96293  0.02454  1.0000
  I   I308      1.0  0.12832  0.30395  0.46539  1.0000
  I   I309      1.0  0.51553  0.50291  0.01197  1.0000
  I   I310      1.0  0.51090  0.03390  0.34141  1.0000
  I   I311      1.0  0.80796  0.48520  0.04521  1.0000
  I   I312      1.0  0.16865  0.58472  0.61276  1.0000
  I   I313      1.0  0.35283  0.66247  0.45293  1.0000
  I   I314      1.0  0.92444  0.03737  0.88108  1.0000
  I   I315      1.0  0.46325  0.03114  0.20314  1.0000
  I   I316      1.0  0.64742  0.68230  0.35162  1.0000
  I   I317      1.0  0.18552  0.97999  0.84561  1.0000
  I   I318      1.0  0.95233  0.65271  0.51535  1.0000
  I   I319      1.0  0.84560  0.00491  0.60785  1.0000
  I   I320      1.0  0.41899  0.87184  0.86838  1.0000
  I   I321      1.0  0.00317  0.68479  0.08957  1.0000
  I   I322      1.0  0.64082  0.69011  0.85134  1.0000
  I   I323      1.0  0.83509  0.14202  0.24531  1.0000
  I   I324      1.0  0.18475  0.84364  0.02063  1.0000
  I   I325      1.0  0.25277  0.94662  0.06063  1.0000
  I   I326      1.0  0.29937  0.36391  0.94733  1.0000
  I   I327      1.0  0.88413  0.10485  0.20778  1.0000
  I   I328      1.0  0.85301  0.35278  0.00640  1.0000
  I   I329      1.0  0.91529  0.10833  0.75500  1.0000
  I   I330      1.0  0.54998  0.99859  0.52681  1.0000
  I   I331      1.0  0.77949  0.78351  0.68334  1.0000
  I   I332      1.0  0.50695  0.00645  0.48212  1.0000
  I   I333      1.0  0.67759  0.62549  0.84095  1.0000
  I   I334      1.0  0.49844  0.94757  0.97325  1.0000
  I   I335      1.0  0.09287  0.63831  0.18492  1.0000
  I   I336      1.0  0.03348  0.11345  0.96397  1.0000
  I   I337      1.0  0.55640  0.00450  0.28664  1.0000
  I   I338      1.0  0.15702  0.27460  0.57858  1.0000
  I   I339      1.0  0.56848  0.97865  0.78614  1.0000
  I   I340      1.0  0.15137  0.41603  0.08824  1.0000
  I   I341      1.0  0.94279  0.55877  0.56788  1.0000
  I   I342      1.0  0.80200  0.97141  0.67237  1.0000
  I   I343      1.0  0.02599  0.71559  0.06448  1.0000
  I   I344      1.0  0.79182  0.01686  0.82414  1.0000
  I   I345      1.0  0.00328  0.19641  0.71016  1.0000
  I   I346      1.0  0.11268  0.85234  0.37975  1.0000
  I   I347      1.0  0.81399  0.60440  0.98441  1.0000
  I   I348      1.0  0.78411  0.23007  0.10281  1.0000
  I   I349      1.0  0.61798  0.18571  0.38293  1.0000
  I   I350      1.0  0.58952  0.51666  0.37256  1.0000
  I   I351      1.0  0.46884  0.81778  0.89198  1.0000
  I   I352      1.0  0.52099  0.36272  0.44814  1.0000
  I   I353      1.0  0.24574  0.12286  0.45017  1.0000
  I   I354      1.0  0.32435  0.37404  0.87455  1.0000
  I   I355      1.0  0.73703  0.23717  0.06955  1.0000
  I   I356      1.0  0.14904  0.60606  0.14808  1.0000
  I   I357      1.0  0.27131  0.73643  0.30401  1.0000
  I   I358      1.0  0.81883  0.44512  0.44310  1.0000
  I   I359      1.0  0.79770  0.44173  0.04546  1.0000
  I   I360      1.0  0.30119  0.29865  0.67813  1.0000
  I   I361      1.0  0.87104  0.81066  0.56991  1.0000
  I   I362      1.0  0.88554  0.02002  0.97319  1.0000
  I   I363      1.0  0.22103  0.75738  0.30123  1.0000
  I   I364      1.0  0.35599  0.69261  0.71648  1.0000
  I   I365      1.0  0.66152  0.29182  0.70849  1.0000
  I   I366      1.0  0.98929  0.60679  0.57492  1.0000
  I   I367      1.0  0.88416  0.01819  0.59745  1.0000
  I   I368      1.0  0.20820  0.39346  0.05360  1.0000
  I   I369      1.0  0.39046  0.18142  0.76149  1.0000
  I   I370      1.0  0.98512  0.16277  0.76669  1.0000
  I   I371      1.0  0.88413  0.13870  0.29526  1.0000
  I   I372      1.0  0.79276  0.48313  0.52681  1.0000
  I   I373      1.0  0.26166  0.95131  0.16266  1.0000
  I   I374      1.0  0.47281  0.65688  0.64388  1.0000
  I   I375      1.0  0.85271  0.09563  0.27098  1.0000
  I   I376      1.0  0.85778  0.42020  0.04429  1.0000
  I   I377      1.0  0.91399  0.06141  0.77858  1.0000
  I   I378      1.0  0.40749  0.37808  0.91280  1.0000
  I   I379      1.0  0.58268  0.33263  0.30156  1.0000
  I   I380      1.0  0.72236  0.43613  0.17055  1.0000
  I   I381      1.0  0.76576  0.15101  0.16598  1.0000
  I   I382      1.0  0.44350  0.92872  0.11055  1.0000
  I   I383      1.0  0.27888  0.75704  0.66751  1.0000
  I   I384      1.0  0.27773  0.26949  0.69476  1.0000
