data_image0
_chemical_formula_structural       Ti96I384
_chemical_formula_sum              "Ti96 I384"
_cell_length_a       55.005
_cell_length_b       55.2568
_cell_length_c       26.6525
_cell_angle_alpha    88.7757
_cell_angle_beta     88.7757
_cell_angle_gamma    62.1586

_space_group_name_H-M_alt    "P 1"
_space_group_IT_number       1

loop_
  _space_group_symop_operation_xyz
  'x, y, z'

loop_
  _atom_site_type_symbol
  _atom_site_label
  _atom_site_symmetry_multiplicity
  _atom_site_fract_x
  _atom_site_fract_y
  _atom_site_fract_z
  _atom_site_occupancy
  Ti  Ti1       1.0  0.77403  0.61600  0.20382  1.0000
  Ti  Ti2       1.0  0.87583  0.08322  0.18224  1.0000
  Ti  Ti3       1.0  0.65013  0.77586  0.25108  1.0000
  Ti  Ti4       1.0  0.31735  0.10968  0.60490  1.0000
  Ti  Ti5       1.0  0.96423  0.27646  0.25343  1.0000
  Ti  Ti6       1.0  0.11130  0.27321  0.84780  1.0000
  Ti  Ti7       1.0  0.94446  0.88496  0.31668  1.0000
  Ti  Ti8       1.0  0.99928  0.11242  0.65175  1.0000
  Ti  Ti9       1.0  0.88487  0.88082  0.76728  1.0000
  Ti  Ti10      1.0  0.42552  0.83236  0.09595  1.0000
  Ti  Ti11      1.0  0.04396  0.62699  0.03506  1.0000
  Ti  Ti12      1.0  0.92696  0.66889  0.37386  1.0000
  Ti  Ti13      1.0  0.35361  0.29026  0.53055  1.0000
  Ti  Ti14      1.0  0.29429  0.20343  0.33692  1.0000
  Ti  Ti15      1.0  0.26680  0.09628  0.01953  1.0000
  Ti  Ti16      1.0  0.19626  0.65530  0.95094  1.0000
  Ti  Ti17      1.0  0.24054  0.73413  0.13343  1.0000
  Ti  Ti18      1.0  0.17381  0.45738  0.07242  1.0000
  Ti  Ti19      1.0  0.64880  0.68925  0.58198  1.0000
  Ti  Ti20      1.0  0.76520  0.80501  0.85914  1.0000
  Ti  Ti21      1.0  0.29132  0.44597  0.38320  1.0000
  Ti  Ti22      1.0  0.53386  0.93413  0.51847  1.0000
  Ti  Ti23      1.0  0.73528  0.91716  0.61038  1.0000
  Ti  Ti24      1.0  0.45879  0.91404  0.66187  1.0000
  Ti  Ti25      1.0  0.34256  0.20812  0.92363  1.0000
  Ti  Ti26      1.0  0.25176  0.34734  0.76596  1.0000
  Ti  Ti27      1.0  0.34841  0.54206  0.72177  1.0000
  Ti  Ti28      1.0  0.51033  0.60347  0.71603  1.0000
  Ti  Ti29      1.0  0.66335  0.45223  0.72197  1.0000
  Ti  Ti30      1.0  0.78295  0.46008  0.62767  1.0000
  Ti  Ti31      1.0  0.66973  0.43029  0.09929  1.0000
  Ti  Ti32      1.0  0.77645  0.31752  0.53795  1.0000
  Ti  Ti33      1.0  0.97048  0.37016  0.06223  1.0000
  Ti  Ti34      1.0  0.04337  0.75655  0.06821  1.0000
  Ti  Ti35      1.0  0.68762  0.72105  0.90267  1.0000
  Ti  Ti36      1.0  0.97024  0.56706  0.79449  1.0000
  Ti  Ti37      1.0  0.59302  0.25883  0.18826  1.0000
  Ti  Ti38      1.0  0.48128  0.34634  0.34748  1.0000
  Ti  Ti39      1.0  0.53978  0.44143  0.08691  1.0000
  Ti  Ti40      1.0  0.15499  0.00077  0.37780  1.0000
  Ti  Ti41      1.0  0.59426  0.29126  0.66430  1.0000
  Ti  Ti42      1.0  0.40543  0.78647  0.64795  1.0000
  Ti  Ti43      1.0  0.79884  0.22400  0.89744  1.0000
  Ti  Ti44      1.0  0.91759  0.45667  0.42581  1.0000
  Ti  Ti45      1.0  0.04392  0.48757  0.39864  1.0000
  Ti  Ti46      1.0  0.65805  0.10791  0.32492  1.0000
  Ti  Ti47      1.0  0.57774  0.04593  0.20513  1.0000
  Ti  Ti48      1.0  0.41857  0.29921  0.76904  1.0000
  Ti  Ti49      1.0  0.71428  0.67963  0.26581  1.0000
  Ti  Ti50      1.0  0.83993  0.04093  0.10038  1.0000
  Ti  Ti51      1.0  0.93764  0.08832  0.25623  1.0000
  Ti  Ti52      1.0  0.29022  0.09689  0.50311  1.0000
  Ti  Ti53      1.0  0.97897  0.20500  0.22765  1.0000
  Ti  Ti54      1.0  0.05565  0.27171  0.86368  1.0000
  Ti  Ti55      1.0  0.02735  0.85073  0.36428  1.0000
  Ti  Ti56      1.0  0.00163  0.04641  0.62247  1.0000
  Ti  Ti57      1.0  0.84057  0.94977  0.76103  1.0000
  Ti  Ti58      1.0  0.34956  0.83871  0.14083  1.0000
  Ti  Ti59      1.0  0.46861  0.83608  0.97966  1.0000
  Ti  Ti60      1.0  0.90306  0.66331  0.24010  1.0000
  Ti  Ti61      1.0  0.28161  0.06020  0.12519  1.0000
  Ti  Ti62      1.0  0.39809  0.25362  0.45228  1.0000
  Ti  Ti63      1.0  0.36694  0.15029  0.27763  1.0000
  Ti  Ti64      1.0  0.22660  0.37083  0.09940  1.0000
  Ti  Ti65      1.0  0.19516  0.71949  0.03952  1.0000
  Ti  Ti66      1.0  0.16355  0.78081  0.60863  1.0000
  Ti  Ti67      1.0  0.59401  0.74231  0.61554  1.0000
  Ti  Ti68      1.0  0.79358  0.80596  0.98711  1.0000
  Ti  Ti69      1.0  0.27188  0.50386  0.28273  1.0000
  Ti  Ti70      1.0  0.47688  0.96943  0.59684  1.0000
  Ti  Ti71      1.0  0.77348  0.89862  0.45995  1.0000
  Ti  Ti72      1.0  0.68642  0.97515  0.70313  1.0000
  Ti  Ti73      1.0  0.36806  0.48200  0.81454  1.0000
  Ti  Ti74      1.0  0.28582  0.25459  0.80560  1.0000
  Ti  Ti75      1.0  0.19361  0.39650  0.67899  1.0000
  Ti  Ti76      1.0  0.84136  0.47651  0.71624  1.0000
  Ti  Ti77      1.0  0.51827  0.63163  0.81206  1.0000
  Ti  Ti78      1.0  0.72197  0.45170  0.75887  1.0000
  Ti  Ti79      1.0  0.88893  0.43209  0.07605  1.0000
  Ti  Ti80      1.0  0.75350  0.37299  0.10021  1.0000
  Ti  Ti81      1.0  0.84808  0.28005  0.54769  1.0000
  Ti  Ti82      1.0  0.96104  0.77659  0.13822  1.0000
  Ti  Ti83      1.0  0.69531  0.63534  0.91098  1.0000
  Ti  Ti84      1.0  0.89377  0.61392  0.83733  1.0000
  Ti  Ti85      1.0  0.65290  0.19367  0.15449  1.0000
  Ti  Ti86      1.0  0.52499  0.27010  0.27445  1.0000
  Ti  Ti87      1.0  0.46488  0.48941  0.10923  1.0000
  Ti  Ti88      1.0  0.15711  0.97856  0.51206  1.0000
  Ti  Ti89      1.0  0.64952  0.20043  0.72026  1.0000
  Ti  Ti90      1.0  0.37534  0.75859  0.77953  1.0000
  Ti  Ti91      1.0  0.06669  0.48885  0.50742  1.0000
  Ti  Ti92      1.0  0.74116  0.27174  0.97573  1.0000
  Ti  Ti93      1.0  0.97741  0.46923  0.32771  1.0000
  Ti  Ti94      1.0  0.48737  0.29029  0.76930  1.0000
  Ti  Ti95      1.0  0.67549  0.08625  0.45832  1.0000
  Ti  Ti96      1.0  0.55419  0.03793  0.09098  1.0000
  I   I1        1.0  0.81148  0.06090  0.01673  1.0000
  I   I2        1.0  0.87653  0.12808  0.14161  1.0000
  I   I3        1.0  0.72720  0.61754  0.25574  1.0000
  I   I4        1.0  0.93977  0.23821  0.28482  1.0000
  I   I5        1.0  0.05184  0.25274  0.95073  1.0000
  I   I6        1.0  0.10009  0.23007  0.81761  1.0000
  I   I7        1.0  0.99476  0.02252  0.70074  1.0000
  I   I8        1.0  0.00627  0.11297  0.55485  1.0000
  I   I9        1.0  0.82445  0.90833  0.74362  1.0000
  I   I10       1.0  0.44927  0.86527  0.13338  1.0000
  I   I11       1.0  0.01284  0.63329  0.95996  1.0000
  I   I12       1.0  0.35586  0.79047  0.17816  1.0000
  I   I13       1.0  0.36078  0.23535  0.47773  1.0000
  I   I14       1.0  0.40129  0.15783  0.21851  1.0000
  I   I15       1.0  0.31756  0.07731  0.08105  1.0000
  I   I16       1.0  0.20429  0.69942  0.93602  1.0000
  I   I17       1.0  0.15939  0.82250  0.65655  1.0000
  I   I18       1.0  0.27605  0.35593  0.11428  1.0000
  I   I19       1.0  0.77942  0.80360  0.08034  1.0000
  I   I20       1.0  0.31230  0.42448  0.29531  1.0000
  I   I21       1.0  0.26694  0.55233  0.31658  1.0000
  I   I22       1.0  0.75467  0.95017  0.42939  1.0000
  I   I23       1.0  0.78152  0.90916  0.56901  1.0000
  I   I24       1.0  0.47293  0.96693  0.69359  1.0000
  I   I25       1.0  0.28639  0.22846  0.90835  1.0000
  I   I26       1.0  0.19713  0.35180  0.73743  1.0000
  I   I27       1.0  0.41007  0.48765  0.76665  1.0000
  I   I28       1.0  0.50023  0.66321  0.72849  1.0000
  I   I29       1.0  0.71587  0.40770  0.75008  1.0000
  I   I30       1.0  0.82119  0.43818  0.70303  1.0000
  I   I31       1.0  0.64128  0.40539  0.13615  1.0000
  I   I32       1.0  0.80739  0.33576  0.48873  1.0000
  I   I33       1.0  0.00573  0.39055  0.05881  1.0000
  I   I34       1.0  0.73343  0.72558  0.91073  1.0000
  I   I35       1.0  0.95901  0.58365  0.69771  1.0000
  I   I36       1.0  0.93980  0.74070  0.11883  1.0000
  I   I37       1.0  0.57024  0.27513  0.29668  1.0000
  I   I38       1.0  0.43579  0.51654  0.19182  1.0000
  I   I39       1.0  0.69609  0.16547  0.20616  1.0000
  I   I40       1.0  0.67640  0.17062  0.64430  1.0000
  I   I41       1.0  0.40608  0.73170  0.85297  1.0000
  I   I42       1.0  0.13206  0.03079  0.51866  1.0000
  I   I43       1.0  0.77582  0.23902  0.81091  1.0000
  I   I44       1.0  0.92225  0.49183  0.33735  1.0000
  I   I45       1.0  0.04458  0.49380  0.29703  1.0000
  I   I46       1.0  0.61483  0.12981  0.27678  1.0000
  I   I47       1.0  0.61775  0.01833  0.13576  1.0000
  I   I48       1.0  0.46405  0.26069  0.71643  1.0000
  I   I49       1.0  0.78985  0.57648  0.14259  1.0000
  I   I50       1.0  0.88476  0.05433  0.09172  1.0000
  I   I51       1.0  0.91888  0.13127  0.30306  1.0000
  I   I52       1.0  0.23542  0.11527  0.47075  1.0000
  I   I53       1.0  0.00319  0.22463  0.30985  1.0000
  I   I54       1.0  0.09113  0.29233  0.94171  1.0000
  I   I55       1.0  0.98359  0.84734  0.39535  1.0000
  I   I56       1.0  0.97036  0.03049  0.57401  1.0000
  I   I57       1.0  0.91419  0.89786  0.82203  1.0000
  I   I58       1.0  0.42878  0.82123  0.98377  1.0000
  I   I59       1.0  0.43695  0.88452  0.00551  1.0000
  I   I60       1.0  0.88121  0.69804  0.31498  1.0000
  I   I61       1.0  0.39335  0.25067  0.58878  1.0000
  I   I62       1.0  0.44616  0.21915  0.47679  1.0000
  I   I63       1.0  0.30887  0.15434  0.36815  1.0000
  I   I64       1.0  0.19003  0.61902  0.00360  1.0000
  I   I65       1.0  0.17819  0.74371  0.12747  1.0000
  I   I66       1.0  0.11691  0.79601  0.56774  1.0000
  I   I67       1.0  0.54714  0.73894  0.60230  1.0000
  I   I68       1.0  0.73133  0.85392  0.81877  1.0000
  I   I69       1.0  0.25792  0.42542  0.41027  1.0000
  I   I70       1.0  0.48435  0.98219  0.48834  1.0000
  I   I71       1.0  0.74237  0.86940  0.62453  1.0000
  I   I72       1.0  0.67380  0.95147  0.77698  1.0000
  I   I73       1.0  0.38182  0.53360  0.64217  1.0000
  I   I74       1.0  0.28390  0.29028  0.73514  1.0000
  I   I75       1.0  0.18349  0.37566  0.60176  1.0000
  I   I76       1.0  0.55940  0.60407  0.71458  1.0000
  I   I77       1.0  0.46250  0.62650  0.77415  1.0000
  I   I78       1.0  0.74556  0.48598  0.72136  1.0000
  I   I79       1.0  0.87005  0.48672  0.05072  1.0000
  I   I80       1.0  0.74803  0.34062  0.15665  1.0000
  I   I81       1.0  0.80552  0.26477  0.51490  1.0000
  I   I82       1.0  0.04036  0.80751  0.05572  1.0000
  I   I83       1.0  0.67610  0.73425  0.99698  1.0000
  I   I84       1.0  0.94754  0.62442  0.81399  1.0000
  I   I85       1.0  0.61270  0.20607  0.22972  1.0000
  I   I86       1.0  0.47766  0.27933  0.24599  1.0000
  I   I87       1.0  0.48231  0.52134  0.06407  1.0000
  I   I88       1.0  0.10452  0.01737  0.35856  1.0000
  I   I89       1.0  0.56821  0.32626  0.73635  1.0000
  I   I90       1.0  0.40501  0.78860  0.76939  1.0000
  I   I91       1.0  0.01927  0.52105  0.54976  1.0000
  I   I92       1.0  0.85057  0.20345  0.87878  1.0000
  I   I93       1.0  0.03583  0.44280  0.35119  1.0000
  I   I94       1.0  0.49427  0.32840  0.80819  1.0000
  I   I95       1.0  0.70177  0.03319  0.46161  1.0000
  I   I96       1.0  0.50361  0.04842  0.06474  1.0000
  I   I97       1.0  0.66257  0.79978  0.32375  1.0000
  I   I98       1.0  0.80490  0.63799  0.16804  1.0000
  I   I99       1.0  0.93390  0.06132  0.17595  1.0000
  I   I100      1.0  0.29875  0.05933  0.43999  1.0000
  I   I101      1.0  0.27068  0.13997  0.65209  1.0000
  I   I102      1.0  0.92106  0.30088  0.19419  1.0000
  I   I103      1.0  0.07139  0.83041  0.30467  1.0000
  I   I104      1.0  0.91016  0.90992  0.39042  1.0000
  I   I105      1.0  0.79101  0.99202  0.74444  1.0000
  I   I106      1.0  0.97443  0.64939  0.42432  1.0000
  I   I107      1.0  0.48145  0.79980  0.07974  1.0000
  I   I108      1.0  0.90231  0.67498  0.13994  1.0000
  I   I109      1.0  0.30309  0.01370  0.16282  1.0000
  I   I110      1.0  0.34181  0.33882  0.55684  1.0000
  I   I111      1.0  0.26298  0.23624  0.41069  1.0000
  I   I112      1.0  0.19358  0.40385  0.02228  1.0000
  I   I113      1.0  0.16681  0.68699  0.03490  1.0000
  I   I114      1.0  0.28388  0.69165  0.15753  1.0000
  I   I115      1.0  0.60863  0.72909  0.51709  1.0000
  I   I116      1.0  0.59678  0.72074  0.70426  1.0000
  I   I117      1.0  0.79629  0.76372  0.93314  1.0000
  I   I118      1.0  0.50299  0.90663  0.59439  1.0000
  I   I119      1.0  0.52027  0.90506  0.45702  1.0000
  I   I120      1.0  0.73913  0.92852  0.72229  1.0000
  I   I121      1.0  0.30994  0.57877  0.66438  1.0000
  I   I122      1.0  0.34108  0.24075  0.83782  1.0000
  I   I123      1.0  0.25442  0.35725  0.66188  1.0000
  I   I124      1.0  0.80335  0.50059  0.62740  1.0000
  I   I125      1.0  0.53160  0.58029  0.82161  1.0000
  I   I126      1.0  0.69817  0.46365  0.65882  1.0000
  I   I127      1.0  0.93438  0.41698  0.00526  1.0000
  I   I128      1.0  0.79815  0.37270  0.14662  1.0000
  I   I129      1.0  0.79839  0.29555  0.63605  1.0000
  I   I130      1.0  0.01854  0.56422  0.80480  1.0000
  I   I131      1.0  0.00410  0.73911  0.06353  1.0000
  I   I132      1.0  0.73133  0.59228  0.87420  1.0000
  I   I133      1.0  0.41929  0.50252  0.06992  1.0000
  I   I134      1.0  0.54460  0.26184  0.16493  1.0000
  I   I135      1.0  0.46334  0.39584  0.31161  1.0000
  I   I136      1.0  0.44385  0.80151  0.65507  1.0000
  I   I137      1.0  0.12946  0.95275  0.54776  1.0000
  I   I138      1.0  0.58179  0.27439  0.58588  1.0000
  I   I139      1.0  0.10021  0.46192  0.40928  1.0000
  I   I140      1.0  0.70579  0.30228  0.91274  1.0000
  I   I141      1.0  0.97573  0.43513  0.41503  1.0000
  I   I142      1.0  0.43535  0.33831  0.74684  1.0000
  I   I143      1.0  0.65355  0.14611  0.39057  1.0000
  I   I144      1.0  0.56540  0.06912  0.03258  1.0000
  I   I145      1.0  0.64472  0.73143  0.21887  1.0000
  I   I146      1.0  0.82369  0.10507  0.17652  1.0000
  I   I147      1.0  0.63737  0.81170  0.17365  1.0000
  I   I148      1.0  0.28617  0.07089  0.58314  1.0000
  I   I149      1.0  0.95292  0.19663  0.14874  1.0000
  I   I150      1.0  0.13937  0.30268  0.83675  1.0000
  I   I151      1.0  0.99569  0.85899  0.27525  1.0000
  I   I152      1.0  0.02679  0.12771  0.70566  1.0000
  I   I153      1.0  0.88729  0.91335  0.69013  1.0000
  I   I154      1.0  0.37228  0.86932  0.08516  1.0000
  I   I155      1.0  0.05974  0.58127  0.08315  1.0000
  I   I156      1.0  0.94797  0.67369  0.27994  1.0000
  I   I157      1.0  0.22896  0.06894  0.13444  1.0000
  I   I158      1.0  0.31423  0.18883  0.23501  1.0000
  I   I159      1.0  0.22449  0.09764  0.96973  1.0000
  I   I160      1.0  0.19190  0.47149  0.98718  1.0000
  I   I161      1.0  0.15291  0.76573  0.99900  1.0000
  I   I162      1.0  0.12450  0.46912  0.07017  1.0000
  I   I163      1.0  0.61547  0.66821  0.60210  1.0000
  I   I164      1.0  0.73743  0.81974  0.94857  1.0000
  I   I165      1.0  0.33103  0.42157  0.45410  1.0000
  I   I166      1.0  0.52728  0.96245  0.60322  1.0000
  I   I167      1.0  0.72212  0.91076  0.51160  1.0000
  I   I168      1.0  0.44363  0.88246  0.61794  1.0000
  I   I169      1.0  0.35288  0.24290  0.97571  1.0000
  I   I170      1.0  0.27075  0.30870  0.84763  1.0000
  I   I171      1.0  0.35131  0.57301  0.78755  1.0000
  I   I172      1.0  0.89015  0.44527  0.68075  1.0000
  I   I173      1.0  0.65562  0.42393  0.64999  1.0000
  I   I174      1.0  0.76760  0.42244  0.68701  1.0000
  I   I175      1.0  0.71908  0.42758  0.13679  1.0000
  I   I176      1.0  0.85637  0.31562  0.59933  1.0000
  I   I177      1.0  0.98138  0.34483  0.97232  1.0000
  I   I178      1.0  0.01453  0.76941  0.16090  1.0000
  I   I179      1.0  0.72928  0.66288  0.91249  1.0000
  I   I180      1.0  0.93893  0.57147  0.87923  1.0000
  I   I181      1.0  0.63738  0.25447  0.22585  1.0000
  I   I182      1.0  0.51046  0.32464  0.24842  1.0000
  I   I183      1.0  0.55335  0.44941  0.99329  1.0000
  I   I184      1.0  0.15550  0.04807  0.35131  1.0000
  I   I185      1.0  0.61661  0.32163  0.63898  1.0000
  I   I186      1.0  0.34724  0.73124  0.76060  1.0000
  I   I187      1.0  0.72773  0.23043  0.98381  1.0000
  I   I188      1.0  0.91499  0.48067  0.50796  1.0000
  I   I189      1.0  0.98427  0.50787  0.39482  1.0000
  I   I190      1.0  0.64529  0.07147  0.37779  1.0000
  I   I191      1.0  0.58748  0.03196  0.30268  1.0000
  I   I192      1.0  0.37993  0.34213  0.82086  1.0000
  I   I193      1.0  0.79890  0.57607  0.27450  1.0000
  I   I194      1.0  0.87166  0.02763  0.18894  1.0000
  I   I195      1.0  0.70639  0.73961  0.22898  1.0000
  I   I196      1.0  0.34702  0.13406  0.59849  1.0000
  I   I197      1.0  0.93893  0.29902  0.34054  1.0000
  I   I198      1.0  0.16118  0.23873  0.87969  1.0000
  I   I199      1.0  0.91660  0.87068  0.26136  1.0000
  I   I200      1.0  0.04927  0.02122  0.57354  1.0000
  I   I201      1.0  0.86908  0.85772  0.84266  1.0000
  I   I202      1.0  0.40711  0.79292  0.10147  1.0000
  I   I203      1.0  0.07107  0.65089  0.00342  1.0000
  I   I204      1.0  0.91089  0.63376  0.41822  1.0000
  I   I205      1.0  0.31279  0.28370  0.57043  1.0000
  I   I206      1.0  0.24525  0.21764  0.30311  1.0000
  I   I207      1.0  0.27791  0.12137  0.94828  1.0000
  I   I208      1.0  0.16636  0.65628  0.87632  1.0000
  I   I209      1.0  0.21305  0.75586  0.22267  1.0000
  I   I210      1.0  0.16519  0.50695  0.09739  1.0000
  I   I211      1.0  0.68358  0.68500  0.51160  1.0000
  I   I212      1.0  0.75246  0.78144  0.78871  1.0000
  I   I213      1.0  0.24302  0.49786  0.37604  1.0000
  I   I214      1.0  0.58204  0.89025  0.53552  1.0000
  I   I215      1.0  0.68033  0.92336  0.62650  1.0000
  I   I216      1.0  0.49024  0.88079  0.72563  1.0000
  I   I217      1.0  0.34651  0.17531  0.99988  1.0000
  I   I218      1.0  0.28870  0.35941  0.79590  1.0000
  I   I219      1.0  0.38121  0.48773  0.90157  1.0000
  I   I220      1.0  0.51721  0.55551  0.69880  1.0000
  I   I221      1.0  0.64921  0.43473  0.80460  1.0000
  I   I222      1.0  0.74830  0.49368  0.56470  1.0000
  I   I223      1.0  0.66800  0.46781  0.02991  1.0000
  I   I224      1.0  0.74383  0.32701  0.46276  1.0000
  I   I225      1.0  0.00255  0.32853  0.11919  1.0000
  I   I226      1.0  0.05629  0.74959  0.97255  1.0000
  I   I227      1.0  0.66620  0.75661  0.82780  1.0000
  I   I228      1.0  0.87186  0.58088  0.81591  1.0000
  I   I229      1.0  0.61180  0.23347  0.09661  1.0000
  I   I230      1.0  0.52879  0.33931  0.37982  1.0000
  I   I231      1.0  0.50202  0.45209  0.18557  1.0000
  I   I232      1.0  0.17083  0.97672  0.29286  1.0000
  I   I233      1.0  0.63723  0.16517  0.76635  1.0000
  I   I234      1.0  0.32924  0.80025  0.81195  1.0000
  I   I235      1.0  0.80434  0.17368  0.88320  1.0000
  I   I236      1.0  0.87047  0.46928  0.38613  1.0000
  I   I237      1.0  0.03831  0.46179  0.48108  1.0000
  I   I238      1.0  0.68882  0.08667  0.24595  1.0000
  I   I239      1.0  0.59808  0.08098  0.20411  1.0000
  I   I240      1.0  0.38042  0.28866  0.72454  1.0000
  I   I241      1.0  0.72631  0.66929  0.16052  1.0000
  I   I242      1.0  0.88228  0.08605  0.28137  1.0000
  I   I243      1.0  0.60069  0.79334  0.28727  1.0000
  I   I244      1.0  0.27874  0.15181  0.52052  1.0000
  I   I245      1.0  0.00145  0.23300  0.17531  1.0000
  I   I246      1.0  0.11768  0.27792  0.74528  1.0000
  I   I247      1.0  0.94271  0.93066  0.27917  1.0000
  I   I248      1.0  0.95260  0.09691  0.64539  1.0000
  I   I249      1.0  0.91497  0.84071  0.72000  1.0000
  I   I250      1.0  0.42038  0.82340  0.19897  1.0000
  I   I251      1.0  0.01802  0.65627  0.11599  1.0000
  I   I252      1.0  0.91042  0.70880  0.43816  1.0000
  I   I253      1.0  0.34056  0.30140  0.42707  1.0000
  I   I254      1.0  0.40699  0.11776  0.33177  1.0000
  I   I255      1.0  0.29360  0.03595  0.02686  1.0000
  I   I256      1.0  0.24918  0.62199  0.93883  1.0000
  I   I257      1.0  0.25970  0.76850  0.14209  1.0000
  I   I258      1.0  0.21958  0.32695  0.09224  1.0000
  I   I259      1.0  0.64861  0.73687  0.62632  1.0000
  I   I260      1.0  0.78845  0.85550  0.96938  1.0000
  I   I261      1.0  0.30836  0.48415  0.35990  1.0000
  I   I262      1.0  0.56057  0.95466  0.46163  1.0000
  I   I263      1.0  0.70162  0.97578  0.59129  1.0000
  I   I264      1.0  0.40863  0.94372  0.70459  1.0000
  I   I265      1.0  0.39329  0.17166  0.90315  1.0000
  I   I266      1.0  0.21097  0.40509  0.78157  1.0000
  I   I267      1.0  0.36006  0.48075  0.70048  1.0000
  I   I268      1.0  0.55865  0.63709  0.84980  1.0000
  I   I269      1.0  0.63210  0.50545  0.71419  1.0000
  I   I270      1.0  0.80192  0.42104  0.56191  1.0000
  I   I271      1.0  0.65343  0.46655  0.17737  1.0000
  I   I272      1.0  0.73861  0.36225  0.58923  1.0000
  I   I273      1.0  0.92169  0.37678  0.10973  1.0000
  I   I274      1.0  0.09247  0.72960  0.10568  1.0000
  I   I275      1.0  0.65957  0.69060  0.88488  1.0000
  I   I276      1.0  0.98321  0.51773  0.76709  1.0000
  I   I277      1.0  0.57004  0.31031  0.15480  1.0000
  I   I278      1.0  0.44461  0.36075  0.41962  1.0000
  I   I279      1.0  0.57356  0.39249  0.11900  1.0000
  I   I280      1.0  0.15785  0.94478  0.42444  1.0000
  I   I281      1.0  0.59307  0.24597  0.72590  1.0000
  I   I282      1.0  0.41261  0.78411  0.55284  1.0000
  I   I283      1.0  0.78072  0.28118  0.92145  1.0000
  I   I284      1.0  0.93094  0.40448  0.44100  1.0000
  I   I285      1.0  0.02723  0.53912  0.41580  1.0000
  I   I286      1.0  0.71195  0.07976  0.37153  1.0000
  I   I287      1.0  0.52601  0.07884  0.16540  1.0000
  I   I288      1.0  0.45453  0.27377  0.83876  1.0000
  I   I289      1.0  0.76736  0.66369  0.28664  1.0000
  I   I290      1.0  0.86307  0.98690  0.09357  1.0000
  I   I291      1.0  0.98712  0.08528  0.22280  1.0000
  I   I292      1.0  0.34243  0.08628  0.69265  1.0000
  I   I293      1.0  0.99549  0.15643  0.25842  1.0000
  I   I294      1.0  0.01295  0.27333  0.81652  1.0000
  I   I295      1.0  0.01933  0.90166  0.35373  1.0000
  I   I296      1.0  0.03618  0.05794  0.69115  1.0000
  I   I297      1.0  0.86989  0.97972  0.75867  1.0000
  I   I298      1.0  0.33193  0.86941  0.21987  1.0000
  I   I299      1.0  0.46511  0.84308  0.88320  1.0000
  I   I300      1.0  0.93008  0.61203  0.27178  1.0000
  I   I301      1.0  0.23200  0.14087  0.07709  1.0000
  I   I302      1.0  0.40313  0.29458  0.49452  1.0000
  I   I303      1.0  0.35127  0.19818  0.33529  1.0000
  I   I304      1.0  0.22442  0.42720  0.11638  1.0000
  I   I305      1.0  0.23213  0.74534  0.03578  1.0000
  I   I306      1.0  0.17390  0.73990  0.67065  1.0000
  I   I307      1.0  0.68017  0.65696  0.65476  1.0000
  I   I308      1.0  0.81367  0.80600  0.84712  1.0000
  I   I309      1.0  0.22371  0.52747  0.24461  1.0000
  I   I310      1.0  0.44472  0.02456  0.60053  1.0000
  I   I311      1.0  0.82391  0.87930  0.43694  1.0000
  I   I312      1.0  0.63890  0.00894  0.66550  1.0000
  I   I313      1.0  0.36450  0.43427  0.82950  1.0000
  I   I314      1.0  0.23221  0.26458  0.81275  1.0000
  I   I315      1.0  0.20866  0.43279  0.63291  1.0000
  I   I316      1.0  0.85673  0.45855  0.80549  1.0000
  I   I317      1.0  0.48513  0.65093  0.89256  1.0000
  I   I318      1.0  0.74699  0.43503  0.83752  1.0000
  I   I319      1.0  0.84751  0.42863  0.04555  1.0000
  I   I320      1.0  0.78566  0.34209  0.02426  1.0000
  I   I321      1.0  0.87079  0.23381  0.59790  1.0000
  I   I322      1.0  0.94328  0.78458  0.22863  1.0000
  I   I323      1.0  0.65372  0.62944  0.88414  1.0000
  I   I324      1.0  0.84987  0.64428  0.89438  1.0000
  I   I325      1.0  0.64706  0.15800  0.10911  1.0000
  I   I326      1.0  0.49037  0.29297  0.37124  1.0000
  I   I327      1.0  0.55768  0.46918  0.13716  1.0000
  I   I328      1.0  0.19228  0.96383  0.58414  1.0000
  I   I329      1.0  0.64867  0.25001  0.69296  1.0000
  I   I330      1.0  0.35737  0.82426  0.67592  1.0000
  I   I331      1.0  0.08673  0.52688  0.49109  1.0000
  I   I332      1.0  0.79220  0.22055  0.00348  1.0000
  I   I333      1.0  0.98168  0.50003  0.25283  1.0000
  I   I334      1.0  0.51681  0.28446  0.68321  1.0000
  I   I335      1.0  0.62727  0.10734  0.50496  1.0000
  I   I336      1.0  0.56001  0.00472  0.18271  1.0000
  I   I337      1.0  0.67698  0.69332  0.33782  1.0000
  I   I338      1.0  0.80675  0.02771  0.15702  1.0000
  I   I339      1.0  0.96013  0.04771  0.32480  1.0000
  I   I340      1.0  0.34318  0.08888  0.51502  1.0000
  I   I341      1.0  0.99613  0.29957  0.25165  1.0000
  I   I342      1.0  0.04005  0.32552  0.85383  1.0000
  I   I343      1.0  0.05435  0.84204  0.45569  1.0000
  I   I344      1.0  0.96210  0.16133  0.63785  1.0000
  I   I345      1.0  0.83610  0.94641  0.86068  1.0000
  I   I346      1.0  0.32514  0.84046  0.05716  1.0000
  I   I347      1.0  0.51612  0.84038  0.97255  1.0000
  I   I348      1.0  0.85848  0.65742  0.23617  1.0000
  I   I349      1.0  0.26808  0.09236  0.20885  1.0000
  I   I350      1.0  0.39289  0.26288  0.34826  1.0000
  I   I351      1.0  0.35855  0.11192  0.25320  1.0000
  I   I352      1.0  0.19818  0.38174  0.17844  1.0000
  I   I353      1.0  0.23941  0.67484  0.06407  1.0000
  I   I354      1.0  0.19954  0.77088  0.54143  1.0000
  I   I355      1.0  0.57677  0.79558  0.62164  1.0000
  I   I356      1.0  0.84863  0.77422  0.00164  1.0000
  I   I357      1.0  0.30011  0.50168  0.19940  1.0000
  I   I358      1.0  0.43477  0.95549  0.57120  1.0000
  I   I359      1.0  0.76517  0.87409  0.38350  1.0000
  I   I360      1.0  0.68856  0.01879  0.73620  1.0000
  I   I361      1.0  0.32260  0.52675  0.81711  1.0000
  I   I362      1.0  0.30392  0.21477  0.74058  1.0000
  I   I363      1.0  0.14038  0.43272  0.70077  1.0000
  I   I364      1.0  0.84066  0.52256  0.73036  1.0000
  I   I365      1.0  0.49260  0.62190  0.62397  1.0000
  I   I366      1.0  0.67741  0.48659  0.81873  1.0000
  I   I367      1.0  0.87139  0.44999  0.16530  1.0000
  I   I368      1.0  0.70627  0.38856  0.04518  1.0000
  I   I369      1.0  0.88374  0.27162  0.47742  1.0000
  I   I370      1.0  0.92747  0.81736  0.09106  1.0000
  I   I371      1.0  0.70260  0.62556  0.00724  1.0000
  I   I372      1.0  0.87973  0.63902  0.75251  1.0000
  I   I373      1.0  0.69116  0.21358  0.11480  1.0000
  I   I374      1.0  0.54275  0.21883  0.31347  1.0000
  I   I375      1.0  0.48702  0.44333  0.05892  1.0000
  I   I376      1.0  0.19631  0.98883  0.44000  1.0000
  I   I377      1.0  0.68256  0.19697  0.79065  1.0000
  I   I378      1.0  0.40672  0.73678  0.67687  1.0000
  I   I379      1.0  0.09678  0.46315  0.58313  1.0000
  I   I380      1.0  0.71611  0.29639  0.05635  1.0000
  I   I381      1.0  0.98566  0.43307  0.25777  1.0000
  I   I382      1.0  0.52862  0.23980  0.79055  1.0000
  I   I383      1.0  0.69240  0.10670  0.52134  1.0000
  I   I384      1.0  0.57113  0.99331  0.04307  1.0000
