data_image0
_chemical_formula_structural       Ti96I384
_chemical_formula_sum              "Ti96 I384"
_cell_length_a       38.6293
_cell_length_b       38.0525
_cell_length_c       22.2197
_cell_angle_alpha    88.7757
_cell_angle_beta     88.7757
_cell_angle_gamma    62.1586

_space_group_name_H-M_alt    "P 1"
_space_group_IT_number       1

loop_
  _space_group_symop_operation_xyz
  'x, y, z'

loop_
  _atom_site_type_symbol
  _atom_site_label
  _atom_site_symmetry_multiplicity
  _atom_site_fract_x
  _atom_site_fract_y
  _atom_site_fract_z
  _atom_site_occupancy
  Ti  Ti1       1.0  0.16660  0.08044  0.20286  1.0000
  Ti  Ti2       1.0  0.16717  0.07983  0.53998  1.0000
  Ti  Ti3       1.0  0.16707  0.07136  0.88167  1.0000
  Ti  Ti4       1.0  0.18731  0.30651  0.26402  1.0000
  Ti  Ti5       1.0  0.18480  0.30786  0.62095  1.0000
  Ti  Ti6       1.0  0.19556  0.32392  0.94655  1.0000
  Ti  Ti7       1.0  0.15701  0.57725  0.24712  1.0000
  Ti  Ti8       1.0  0.16687  0.56614  0.57539  1.0000
  Ti  Ti9       1.0  0.16486  0.55965  0.91467  1.0000
  Ti  Ti10      1.0  0.10370  0.89032  0.23320  1.0000
  Ti  Ti11      1.0  0.09060  0.88050  0.55962  1.0000
  Ti  Ti12      1.0  0.09196  0.88866  0.90546  1.0000
  Ti  Ti13      1.0  0.40778  0.09484  0.28111  1.0000
  Ti  Ti14      1.0  0.39327  0.07354  0.62219  1.0000
  Ti  Ti15      1.0  0.42091  0.07576  0.95130  1.0000
  Ti  Ti16      1.0  0.43414  0.31726  0.28693  1.0000
  Ti  Ti17      1.0  0.42363  0.32126  0.60703  1.0000
  Ti  Ti18      1.0  0.43477  0.32631  0.94368  1.0000
  Ti  Ti19      1.0  0.36170  0.65167  0.24786  1.0000
  Ti  Ti20      1.0  0.35489  0.64763  0.57628  1.0000
  Ti  Ti21      1.0  0.36778  0.64510  0.93177  1.0000
  Ti  Ti22      1.0  0.44156  0.80751  0.16903  1.0000
  Ti  Ti23      1.0  0.42344  0.82247  0.52489  1.0000
  Ti  Ti24      1.0  0.41010  0.84176  0.84253  1.0000
  Ti  Ti25      1.0  0.68428  0.07677  0.35129  1.0000
  Ti  Ti26      1.0  0.68532  0.07645  0.67543  1.0000
  Ti  Ti27      1.0  0.70600  0.06418  0.00141  1.0000
  Ti  Ti28      1.0  0.59103  0.40938  0.26135  1.0000
  Ti  Ti29      1.0  0.62967  0.38491  0.60938  1.0000
  Ti  Ti30      1.0  0.61310  0.37963  0.92355  1.0000
  Ti  Ti31      1.0  0.67886  0.56827  0.19707  1.0000
  Ti  Ti32      1.0  0.67729  0.58324  0.54146  1.0000
  Ti  Ti33      1.0  0.66790  0.56620  0.87909  1.0000
  Ti  Ti34      1.0  0.64539  0.87464  0.28557  1.0000
  Ti  Ti35      1.0  0.63789  0.85898  0.62002  1.0000
  Ti  Ti36      1.0  0.64974  0.85812  0.93628  1.0000
  Ti  Ti37      1.0  0.87519  0.14323  0.24485  1.0000
  Ti  Ti38      1.0  0.86456  0.13873  0.56435  1.0000
  Ti  Ti39      1.0  0.86788  0.14206  0.90818  1.0000
  Ti  Ti40      1.0  0.92923  0.31908  0.18456  1.0000
  Ti  Ti41      1.0  0.92186  0.31475  0.51234  1.0000
  Ti  Ti42      1.0  0.92588  0.31003  0.84955  1.0000
  Ti  Ti43      1.0  0.91511  0.57240  0.24580  1.0000
  Ti  Ti44      1.0  0.90284  0.57586  0.55531  1.0000
  Ti  Ti45      1.0  0.91253  0.59618  0.89391  1.0000
  Ti  Ti46      1.0  0.93320  0.84261  0.30002  1.0000
  Ti  Ti47      1.0  0.92850  0.84582  0.63682  1.0000
  Ti  Ti48      1.0  0.93112  0.83223  0.96912  1.0000
  Ti  Ti49      1.0  0.10607  0.13728  0.03495  1.0000
  Ti  Ti50      1.0  0.11212  0.13686  0.37108  1.0000
  Ti  Ti51      1.0  0.10209  0.14786  0.71059  1.0000
  Ti  Ti52      1.0  0.12130  0.38413  0.11367  1.0000
  Ti  Ti53      1.0  0.12583  0.36709  0.44842  1.0000
  Ti  Ti54      1.0  0.12635  0.36716  0.77238  1.0000
  Ti  Ti55      1.0  0.11321  0.63060  0.07332  1.0000
  Ti  Ti56      1.0  0.10489  0.63941  0.42190  1.0000
  Ti  Ti57      1.0  0.11648  0.62788  0.74351  1.0000
  Ti  Ti58      1.0  0.05151  0.96667  0.07107  1.0000
  Ti  Ti59      1.0  0.05060  0.95618  0.39710  1.0000
  Ti  Ti60      1.0  0.03294  0.95166  0.73810  1.0000
  Ti  Ti61      1.0  0.34879  0.15391  0.10208  1.0000
  Ti  Ti62      1.0  0.33914  0.14010  0.46026  1.0000
  Ti  Ti63      1.0  0.35383  0.14058  0.79884  1.0000
  Ti  Ti64      1.0  0.38165  0.38904  0.11545  1.0000
  Ti  Ti65      1.0  0.37166  0.38795  0.45071  1.0000
  Ti  Ti66      1.0  0.37473  0.39352  0.77747  1.0000
  Ti  Ti67      1.0  0.29172  0.70576  0.09702  1.0000
  Ti  Ti68      1.0  0.28592  0.70765  0.40779  1.0000
  Ti  Ti69      1.0  0.31039  0.69864  0.75424  1.0000
  Ti  Ti70      1.0  0.36597  0.88491  0.01266  1.0000
  Ti  Ti71      1.0  0.36826  0.87793  0.33657  1.0000
  Ti  Ti72      1.0  0.34223  0.89404  0.67214  1.0000
  Ti  Ti73      1.0  0.62883  0.12210  0.17693  1.0000
  Ti  Ti74      1.0  0.62227  0.14712  0.51542  1.0000
  Ti  Ti75      1.0  0.63796  0.12382  0.84621  1.0000
  Ti  Ti76      1.0  0.55288  0.45783  0.08237  1.0000
  Ti  Ti77      1.0  0.56000  0.46416  0.44751  1.0000
  Ti  Ti78      1.0  0.55996  0.44098  0.75979  1.0000
  Ti  Ti79      1.0  0.61484  0.63149  0.04512  1.0000
  Ti  Ti80      1.0  0.60612  0.63738  0.36484  1.0000
  Ti  Ti81      1.0  0.59923  0.62908  0.70510  1.0000
  Ti  Ti82      1.0  0.57300  0.92296  0.11619  1.0000
  Ti  Ti83      1.0  0.56897  0.90888  0.44560  1.0000
  Ti  Ti84      1.0  0.57388  0.91021  0.78757  1.0000
  Ti  Ti85      1.0  0.80569  0.19838  0.07670  1.0000
  Ti  Ti86      1.0  0.80436  0.19733  0.41295  1.0000
  Ti  Ti87      1.0  0.80190  0.19590  0.73739  1.0000
  Ti  Ti88      1.0  0.85712  0.38499  0.01744  1.0000
  Ti  Ti89      1.0  0.86224  0.37215  0.35487  1.0000
  Ti  Ti90      1.0  0.86555  0.36779  0.67961  1.0000
  Ti  Ti91      1.0  0.85911  0.65055  0.08693  1.0000
  Ti  Ti92      1.0  0.83635  0.64684  0.38942  1.0000
  Ti  Ti93      1.0  0.84451  0.64491  0.71788  1.0000
  Ti  Ti94      1.0  0.88565  0.91425  0.12717  1.0000
  Ti  Ti95      1.0  0.86988  0.91454  0.46760  1.0000
  Ti  Ti96      1.0  0.86890  0.91329  0.80367  1.0000
  I   I1        1.0  0.09501  0.10482  0.27213  1.0000
  I   I2        1.0  0.09096  0.11413  0.60632  1.0000
  I   I3        1.0  0.08627  0.11325  0.92765  1.0000
  I   I4        1.0  0.11298  0.34418  0.33602  1.0000
  I   I5        1.0  0.11319  0.32227  0.69092  1.0000
  I   I6        1.0  0.11337  0.35506  0.99456  1.0000
  I   I7        1.0  0.07868  0.62818  0.30752  1.0000
  I   I8        1.0  0.09330  0.59609  0.64021  1.0000
  I   I9        1.0  0.09516  0.59762  0.97668  1.0000
  I   I10       1.0  0.02386  0.94392  0.28792  1.0000
  I   I11       1.0  0.01638  0.93253  0.62711  1.0000
  I   I12       1.0  0.02018  0.94043  0.98109  1.0000
  I   I13       1.0  0.32308  0.12396  0.35097  1.0000
  I   I14       1.0  0.32597  0.11085  0.69787  1.0000
  I   I15       1.0  0.33684  0.12302  0.99757  1.0000
  I   I16       1.0  0.35218  0.35437  0.34354  1.0000
  I   I17       1.0  0.35330  0.37005  0.67583  1.0000
  I   I18       1.0  0.35790  0.36148  0.02625  1.0000
  I   I19       1.0  0.29022  0.66363  0.31302  1.0000
  I   I20       1.0  0.28311  0.67227  0.64988  1.0000
  I   I21       1.0  0.29417  0.66039  0.99481  1.0000
  I   I22       1.0  0.36761  0.83468  0.24282  1.0000
  I   I23       1.0  0.34098  0.85141  0.57288  1.0000
  I   I24       1.0  0.33736  0.86520  0.91624  1.0000
  I   I25       1.0  0.60830  0.11777  0.40750  1.0000
  I   I26       1.0  0.61429  0.10361  0.74260  1.0000
  I   I27       1.0  0.62717  0.09193  0.07096  1.0000
  I   I28       1.0  0.52422  0.46329  0.32239  1.0000
  I   I29       1.0  0.54822  0.42249  0.65082  1.0000
  I   I30       1.0  0.53862  0.41276  0.99421  1.0000
  I   I31       1.0  0.58965  0.61174  0.25855  1.0000
  I   I32       1.0  0.59388  0.59923  0.59291  1.0000
  I   I33       1.0  0.59049  0.60641  0.93640  1.0000
  I   I34       1.0  0.58128  0.86368  0.34659  1.0000
  I   I35       1.0  0.57404  0.86093  0.69958  1.0000
  I   I36       1.0  0.57063  0.87886  0.02327  1.0000
  I   I37       1.0  0.80115  0.17112  0.29322  1.0000
  I   I38       1.0  0.79046  0.16620  0.62985  1.0000
  I   I39       1.0  0.79154  0.17137  0.96910  1.0000
  I   I40       1.0  0.85524  0.33921  0.24457  1.0000
  I   I41       1.0  0.85394  0.32398  0.58867  1.0000
  I   I42       1.0  0.85082  0.34303  0.90813  1.0000
  I   I43       1.0  0.83192  0.61340  0.28470  1.0000
  I   I44       1.0  0.82756  0.60889  0.62059  1.0000
  I   I45       1.0  0.84308  0.63391  0.96273  1.0000
  I   I46       1.0  0.84799  0.90337  0.35548  1.0000
  I   I47       1.0  0.84945  0.89405  0.69390  1.0000
  I   I48       1.0  0.86667  0.88282  0.03426  1.0000
  I   I49       1.0  0.13018  0.15529  0.14521  1.0000
  I   I50       1.0  0.14370  0.15939  0.46349  1.0000
  I   I51       1.0  0.13925  0.14661  0.81782  1.0000
  I   I52       1.0  0.16924  0.38098  0.21461  1.0000
  I   I53       1.0  0.14622  0.38924  0.55579  1.0000
  I   I54       1.0  0.14777  0.39822  0.87249  1.0000
  I   I55       1.0  0.13647  0.65245  0.18502  1.0000
  I   I56       1.0  0.14313  0.64336  0.51875  1.0000
  I   I57       1.0  0.14901  0.63192  0.84472  1.0000
  I   I58       1.0  0.08773  0.96352  0.17846  1.0000
  I   I59       1.0  0.07113  0.95787  0.51317  1.0000
  I   I60       1.0  0.06944  0.96059  0.83830  1.0000
  I   I61       1.0  0.36857  0.16879  0.22141  1.0000
  I   I62       1.0  0.38229  0.14689  0.55560  1.0000
  I   I63       1.0  0.39052  0.15443  0.89355  1.0000
  I   I64       1.0  0.41781  0.39434  0.22319  1.0000
  I   I65       1.0  0.41227  0.39649  0.53884  1.0000
  I   I66       1.0  0.40532  0.40373  0.88892  1.0000
  I   I67       1.0  0.31990  0.73525  0.18406  1.0000
  I   I68       1.0  0.31027  0.72640  0.52678  1.0000
  I   I69       1.0  0.33462  0.71640  0.85273  1.0000
  I   I70       1.0  0.41441  0.88483  0.10920  1.0000
  I   I71       1.0  0.39689  0.89754  0.42787  1.0000
  I   I72       1.0  0.36420  0.92067  0.77752  1.0000
  I   I73       1.0  0.64744  0.15749  0.28059  1.0000
  I   I74       1.0  0.64586  0.15806  0.62278  1.0000
  I   I75       1.0  0.66898  0.14172  0.94673  1.0000
  I   I76       1.0  0.57728  0.47693  0.18271  1.0000
  I   I77       1.0  0.59781  0.46304  0.54590  1.0000
  I   I78       1.0  0.58236  0.45845  0.87219  1.0000
  I   I79       1.0  0.63971  0.64958  0.14632  1.0000
  I   I80       1.0  0.63100  0.65702  0.47880  1.0000
  I   I81       1.0  0.63837  0.63947  0.80745  1.0000
  I   I82       1.0  0.58369  0.95173  0.22904  1.0000
  I   I83       1.0  0.59201  0.93568  0.54738  1.0000
  I   I84       1.0  0.60274  0.93426  0.88146  1.0000
  I   I85       1.0  0.83038  0.22157  0.17510  1.0000
  I   I86       1.0  0.83258  0.21598  0.51296  1.0000
  I   I87       1.0  0.82257  0.22051  0.84676  1.0000
  I   I88       1.0  0.87978  0.41342  0.10631  1.0000
  I   I89       1.0  0.89080  0.39395  0.44930  1.0000
  I   I90       1.0  0.89592  0.38607  0.79371  1.0000
  I   I91       1.0  0.89424  0.64953  0.18997  1.0000
  I   I92       1.0  0.86919  0.65531  0.49404  1.0000
  I   I93       1.0  0.87404  0.66605  0.81507  1.0000
  I   I94       1.0  0.91461  0.91617  0.23944  1.0000
  I   I95       1.0  0.90910  0.91416  0.57600  1.0000
  I   I96       1.0  0.91029  0.91023  0.90664  1.0000
  I   I97       1.0  0.18263  0.10384  0.97714  1.0000
  I   I98       1.0  0.18660  0.11371  0.29868  1.0000
  I   I99       1.0  0.18238  0.11869  0.64092  1.0000
  I   I100      1.0  0.20120  0.36084  0.04039  1.0000
  I   I101      1.0  0.20383  0.32905  0.37761  1.0000
  I   I102      1.0  0.20285  0.35005  0.69654  1.0000
  I   I103      1.0  0.19150  0.57189  0.03595  1.0000
  I   I104      1.0  0.17697  0.60992  0.34216  1.0000
  I   I105      1.0  0.19348  0.58658  0.67999  1.0000
  I   I106      1.0  0.12381  0.91262  0.00295  1.0000
  I   I107      1.0  0.13019  0.90436  0.33504  1.0000
  I   I108      1.0  0.10814  0.89796  0.67147  1.0000
  I   I109      1.0  0.43399  0.10923  0.05408  1.0000
  I   I110      1.0  0.42225  0.09906  0.39766  1.0000
  I   I111      1.0  0.41719  0.10846  0.71350  1.0000
  I   I112      1.0  0.45849  0.34351  0.05064  1.0000
  I   I113      1.0  0.44586  0.35116  0.39015  1.0000
  I   I114      1.0  0.44553  0.35903  0.69658  1.0000
  I   I115      1.0  0.36116  0.68815  0.03391  1.0000
  I   I116      1.0  0.36795  0.68622  0.35110  1.0000
  I   I117      1.0  0.37184  0.68030  0.68186  1.0000
  I   I118      1.0  0.43208  0.86914  0.94357  1.0000
  I   I119      1.0  0.45171  0.84459  0.27414  1.0000
  I   I120      1.0  0.42155  0.86769  0.61743  1.0000
  I   I121      1.0  0.72098  0.08048  0.10790  1.0000
  I   I122      1.0  0.70147  0.11131  0.44694  1.0000
  I   I123      1.0  0.71476  0.08564  0.78928  1.0000
  I   I124      1.0  0.62502  0.41905  0.02283  1.0000
  I   I125      1.0  0.62191  0.43636  0.35665  1.0000
  I   I126      1.0  0.64917  0.40188  0.71694  1.0000
  I   I127      1.0  0.69049  0.59315  0.98270  1.0000
  I   I128      1.0  0.68265  0.61264  0.29650  1.0000
  I   I129      1.0  0.67883  0.61608  0.64061  1.0000
  I   I130      1.0  0.64330  0.90562  0.02784  1.0000
  I   I131      1.0  0.64206  0.90427  0.39413  1.0000
  I   I132      1.0  0.64691  0.88481  0.72625  1.0000
  I   I133      1.0  0.88122  0.17266  0.01055  1.0000
  I   I134      1.0  0.88334  0.16465  0.35448  1.0000
  I   I135      1.0  0.88154  0.15695  0.68430  1.0000
  I   I136      1.0  0.92858  0.35961  0.95610  1.0000
  I   I137      1.0  0.93422  0.35765  0.28361  1.0000
  I   I138      1.0  0.93872  0.34318  0.61923  1.0000
  I   I139      1.0  0.92644  0.62158  0.00871  1.0000
  I   I140      1.0  0.92419  0.60423  0.34397  1.0000
  I   I141      1.0  0.92140  0.60811  0.66665  1.0000
  I   I142      1.0  0.96437  0.85326  0.06932  1.0000
  I   I143      1.0  0.94243  0.87632  0.40178  1.0000
  I   I144      1.0  0.95066  0.86578  0.74559  1.0000
  I   I145      1.0  0.13604  0.05581  0.09602  1.0000
  I   I146      1.0  0.13562  0.06665  0.44496  1.0000
  I   I147      1.0  0.13386  0.06691  0.75734  1.0000
  I   I148      1.0  0.14406  0.30421  0.15801  1.0000
  I   I149      1.0  0.14838  0.29725  0.51520  1.0000
  I   I150      1.0  0.16897  0.29558  0.84432  1.0000
  I   I151      1.0  0.11622  0.56869  0.14960  1.0000
  I   I152      1.0  0.11766  0.56658  0.48056  1.0000
  I   I153      1.0  0.13525  0.54687  0.81224  1.0000
  I   I154      1.0  0.05975  0.89031  0.12807  1.0000
  I   I155      1.0  0.04972  0.88074  0.45556  1.0000
  I   I156      1.0  0.05218  0.88082  0.80360  1.0000
  I   I157      1.0  0.38039  0.07840  0.16503  1.0000
  I   I158      1.0  0.34581  0.07443  0.52531  1.0000
  I   I159      1.0  0.38959  0.06026  0.85250  1.0000
  I   I160      1.0  0.40682  0.30587  0.17423  1.0000
  I   I161      1.0  0.36850  0.32173  0.52190  1.0000
  I   I162      1.0  0.39915  0.31924  0.83671  1.0000
  I   I163      1.0  0.34021  0.62273  0.14977  1.0000
  I   I164      1.0  0.33404  0.62689  0.47850  1.0000
  I   I165      1.0  0.33867  0.62871  0.83047  1.0000
  I   I166      1.0  0.39378  0.80751  0.07679  1.0000
  I   I167      1.0  0.41795  0.79686  0.41177  1.0000
  I   I168      1.0  0.37956  0.81945  0.74649  1.0000
  I   I169      1.0  0.65811  0.05817  0.24696  1.0000
  I   I170      1.0  0.65206  0.06873  0.57111  1.0000
  I   I171      1.0  0.66851  0.04870  0.91022  1.0000
  I   I172      1.0  0.55965  0.38135  0.15430  1.0000
  I   I173      1.0  0.58389  0.38421  0.50035  1.0000
  I   I174      1.0  0.57701  0.36536  0.82100  1.0000
  I   I175      1.0  0.65357  0.54633  0.09959  1.0000
  I   I176      1.0  0.64990  0.56233  0.43101  1.0000
  I   I177      1.0  0.63682  0.55602  0.77097  1.0000
  I   I178      1.0  0.61651  0.85098  0.18150  1.0000
  I   I179      1.0  0.60901  0.83518  0.51388  1.0000
  I   I180      1.0  0.62114  0.82923  0.85538  1.0000
  I   I181      1.0  0.85205  0.12282  0.13455  1.0000
  I   I182      1.0  0.82041  0.12651  0.47531  1.0000
  I   I183      1.0  0.82516  0.12704  0.81256  1.0000
  I   I184      1.0  0.89862  0.30966  0.07873  1.0000
  I   I185      1.0  0.89257  0.29413  0.41734  1.0000
  I   I186      1.0  0.90486  0.29343  0.73674  1.0000
  I   I187      1.0  0.88046  0.56922  0.12868  1.0000
  I   I188      1.0  0.86970  0.56496  0.45361  1.0000
  I   I189      1.0  0.88050  0.57308  0.79124  1.0000
  I   I190      1.0  0.88675  0.84697  0.20188  1.0000
  I   I191      1.0  0.89032  0.83553  0.52927  1.0000
  I   I192      1.0  0.89470  0.83194  0.86160  1.0000
  I   I193      1.0  0.23357  0.05726  0.13993  1.0000
  I   I194      1.0  0.23793  0.05650  0.49909  1.0000
  I   I195      1.0  0.23842  0.04621  0.83031  1.0000
  I   I196      1.0  0.25697  0.29214  0.22526  1.0000
  I   I197      1.0  0.24745  0.29846  0.55665  1.0000
  I   I198      1.0  0.26044  0.31873  0.90567  1.0000
  I   I199      1.0  0.23137  0.53829  0.20494  1.0000
  I   I200      1.0  0.23245  0.54806  0.52190  1.0000
  I   I201      1.0  0.23469  0.54671  0.87962  1.0000
  I   I202      1.0  0.17215  0.85583  0.17491  1.0000
  I   I203      1.0  0.16380  0.85822  0.51484  1.0000
  I   I204      1.0  0.15631  0.85546  0.84304  1.0000
  I   I205      1.0  0.48203  0.07915  0.25847  1.0000
  I   I206      1.0  0.45793  0.03497  0.56207  1.0000
  I   I207      1.0  0.48999  0.05243  0.91038  1.0000
  I   I208      1.0  0.50885  0.27760  0.24828  1.0000
  I   I209      1.0  0.49155  0.28845  0.56246  1.0000
  I   I210      1.0  0.50340  0.30624  0.90317  1.0000
  I   I211      1.0  0.42471  0.64031  0.19033  1.0000
  I   I212      1.0  0.42205  0.63885  0.52593  1.0000
  I   I213      1.0  0.43702  0.63540  0.89176  1.0000
  I   I214      1.0  0.49868  0.79669  0.09180  1.0000
  I   I215      1.0  0.49523  0.81053  0.49961  1.0000
  I   I216      1.0  0.46925  0.84437  0.78292  1.0000
  I   I217      1.0  0.75585  0.05361  0.30084  1.0000
  I   I218      1.0  0.74747  0.07301  0.62494  1.0000
  I   I219      1.0  0.77000  0.05928  0.94718  1.0000
  I   I220      1.0  0.66171  0.36669  0.21598  1.0000
  I   I221      1.0  0.69530  0.37250  0.56139  1.0000
  I   I222      1.0  0.68252  0.35031  0.88501  1.0000
  I   I223      1.0  0.74736  0.55151  0.15514  1.0000
  I   I224      1.0  0.74172  0.57389  0.49709  1.0000
  I   I225      1.0  0.74107  0.54576  0.83276  1.0000
  I   I226      1.0  0.69546  0.89986  0.24316  1.0000
  I   I227      1.0  0.70431  0.85109  0.57649  1.0000
  I   I228      1.0  0.71298  0.84995  0.88691  1.0000
  I   I229      1.0  0.93761  0.13868  0.19107  1.0000
  I   I230      1.0  0.93696  0.10987  0.52102  1.0000
  I   I231      1.0  0.94083  0.11890  0.87487  1.0000
  I   I232      1.0  0.99217  0.32246  0.14162  1.0000
  I   I233      1.0  0.99250  0.30598  0.46792  1.0000
  I   I234      1.0  0.99569  0.29609  0.81223  1.0000
  I   I235      1.0  0.98633  0.54540  0.20980  1.0000
  I   I236      1.0  0.97424  0.55996  0.51993  1.0000
  I   I237      1.0  0.97984  0.58330  0.86000  1.0000
  I   I238      1.0  0.00458  0.80136  0.25216  1.0000
  I   I239      1.0  0.00026  0.80304  0.59575  1.0000
  I   I240      1.0  0.99862  0.79859  0.91344  1.0000
  I   I241      1.0  0.19644  0.00415  0.23878  1.0000
  I   I242      1.0  0.18743  0.01154  0.59860  1.0000
  I   I243      1.0  0.17040  0.00219  0.90796  1.0000
  I   I244      1.0  0.19313  0.23698  0.28274  1.0000
  I   I245      1.0  0.20529  0.23681  0.65991  1.0000
  I   I246      1.0  0.22267  0.25197  0.99230  1.0000
  I   I247      1.0  0.15844  0.51537  0.29944  1.0000
  I   I248      1.0  0.18135  0.49432  0.61090  1.0000
  I   I249      1.0  0.18221  0.49281  0.96772  1.0000
  I   I250      1.0  0.10344  0.82480  0.26851  1.0000
  I   I251      1.0  0.10401  0.81499  0.61066  1.0000
  I   I252      1.0  0.09947  0.81892  0.94392  1.0000
  I   I253      1.0  0.41081  0.02547  0.30736  1.0000
  I   I254      1.0  0.38684  0.01179  0.66818  1.0000
  I   I255      1.0  0.43251  0.00676  0.00011  1.0000
  I   I256      1.0  0.43967  0.25079  0.32925  1.0000
  I   I257      1.0  0.43033  0.25533  0.65621  1.0000
  I   I258      1.0  0.44321  0.25294  0.97755  1.0000
  I   I259      1.0  0.38811  0.58375  0.30276  1.0000
  I   I260      1.0  0.37832  0.57962  0.63095  1.0000
  I   I261      1.0  0.39780  0.57292  0.97215  1.0000
  I   I262      1.0  0.45856  0.73471  0.19325  1.0000
  I   I263      1.0  0.44237  0.74940  0.56234  1.0000
  I   I264      1.0  0.44528  0.76535  0.86445  1.0000
  I   I265      1.0  0.69841  0.00791  0.39580  1.0000
  I   I266      1.0  0.71147  0.00240  0.71337  1.0000
  I   I267      1.0  0.73304  0.98891  0.02822  1.0000
  I   I268      1.0  0.59229  0.34776  0.31501  1.0000
  I   I269      1.0  0.64307  0.31386  0.63810  1.0000
  I   I270      1.0  0.61918  0.31836  0.98624  1.0000
  I   I271      1.0  0.69787  0.50214  0.25783  1.0000
  I   I272      1.0  0.70316  0.50713  0.57603  1.0000
  I   I273      1.0  0.68543  0.49553  0.91542  1.0000
  I   I274      1.0  0.69979  0.80154  0.30450  1.0000
  I   I275      1.0  0.67005  0.78097  0.65119  1.0000
  I   I276      1.0  0.68399  0.79310  0.00039  1.0000
  I   I277      1.0  0.90306  0.06836  0.27240  1.0000
  I   I278      1.0  0.88683  0.06295  0.59289  1.0000
  I   I279      1.0  0.88139  0.07386  0.95315  1.0000
  I   I280      1.0  0.96719  0.24639  0.21675  1.0000
  I   I281      1.0  0.95820  0.24482  0.56333  1.0000
  I   I282      1.0  0.94010  0.24778  0.91195  1.0000
  I   I283      1.0  0.91379  0.50695  0.27795  1.0000
  I   I284      1.0  0.91022  0.50986  0.60364  1.0000
  I   I285      1.0  0.92524  0.52821  0.93831  1.0000
  I   I286      1.0  0.93250  0.78055  0.34722  1.0000
  I   I287      1.0  0.92223  0.78830  0.69839  1.0000
  I   I288      1.0  0.93127  0.76820  0.00870  1.0000
  I   I289      1.0  0.03893  0.15451  0.08237  1.0000
  I   I290      1.0  0.04000  0.16474  0.41665  1.0000
  I   I291      1.0  0.04081  0.15806  0.77236  1.0000
  I   I292      1.0  0.04818  0.40594  0.14351  1.0000
  I   I293      1.0  0.05229  0.39481  0.48287  1.0000
  I   I294      1.0  0.05872  0.38400  0.81792  1.0000
  I   I295      1.0  0.03863  0.66619  0.09520  1.0000
  I   I296      1.0  0.03538  0.65252  0.46656  1.0000
  I   I297      1.0  0.04472  0.66038  0.79185  1.0000
  I   I298      1.0  0.98359  0.01007  0.13186  1.0000
  I   I299      1.0  0.97772  0.99365  0.43382  1.0000
  I   I300      1.0  0.95768  0.98253  0.76616  1.0000
  I   I301      1.0  0.28101  0.17696  0.15389  1.0000
  I   I302      1.0  0.26567  0.18598  0.50022  1.0000
  I   I303      1.0  0.28475  0.15817  0.84534  1.0000
  I   I304      1.0  0.31455  0.42630  0.17593  1.0000
  I   I305      1.0  0.29553  0.41906  0.47291  1.0000
  I   I306      1.0  0.30677  0.43016  0.83420  1.0000
  I   I307      1.0  0.23091  0.70072  0.14580  1.0000
  I   I308      1.0  0.22413  0.70971  0.46066  1.0000
  I   I309      1.0  0.24078  0.70138  0.78575  1.0000
  I   I310      1.0  0.29960  0.90881  0.07808  1.0000
  I   I311      1.0  0.30597  0.87943  0.38185  1.0000
  I   I312      1.0  0.27957  0.90036  0.73252  1.0000
  I   I313      1.0  0.55589  0.14309  0.20612  1.0000
  I   I314      1.0  0.54573  0.16886  0.54450  1.0000
  I   I315      1.0  0.57003  0.13411  0.89356  1.0000
  I   I316      1.0  0.47759  0.48720  0.11339  1.0000
  I   I317      1.0  0.49136  0.48036  0.48180  1.0000
  I   I318      1.0  0.48555  0.48068  0.79069  1.0000
  I   I319      1.0  0.54966  0.63000  0.08302  1.0000
  I   I320      1.0  0.54298  0.66314  0.42412  1.0000
  I   I321      1.0  0.53207  0.63532  0.74613  1.0000
  I   I322      1.0  0.50014  0.94141  0.14613  1.0000
  I   I323      1.0  0.50367  0.91267  0.48492  1.0000
  I   I324      1.0  0.51169  0.92216  0.84925  1.0000
  I   I325      1.0  0.74061  0.20517  0.13017  1.0000
  I   I326      1.0  0.73091  0.22569  0.43770  1.0000
  I   I327      1.0  0.72925  0.21524  0.76011  1.0000
  I   I328      1.0  0.79368  0.38003  0.05204  1.0000
  I   I329      1.0  0.78953  0.38865  0.38679  1.0000
  I   I330      1.0  0.80260  0.38048  0.74048  1.0000
  I   I331      1.0  0.78531  0.67325  0.12083  1.0000
  I   I332      1.0  0.76719  0.66446  0.42453  1.0000
  I   I333      1.0  0.77943  0.67335  0.77746  1.0000
  I   I334      1.0  0.81437  0.95210  0.17660  1.0000
  I   I335      1.0  0.80001  0.93850  0.51126  1.0000
  I   I336      1.0  0.80248  0.92800  0.85631  1.0000
  I   I337      1.0  0.09249  0.20790  0.99029  1.0000
  I   I338      1.0  0.09365  0.20464  0.32106  1.0000
  I   I339      1.0  0.08393  0.21902  0.68452  1.0000
  I   I340      1.0  0.11280  0.45623  0.09669  1.0000
  I   I341      1.0  0.12521  0.43574  0.41293  1.0000
  I   I342      1.0  0.09639  0.43468  0.70839  1.0000
  I   I343      1.0  0.12498  0.68547  0.01620  1.0000
  I   I344      1.0  0.07701  0.71723  0.39843  1.0000
  I   I345      1.0  0.11022  0.69361  0.69636  1.0000
  I   I346      1.0  0.05839  0.02324  0.01694  1.0000
  I   I347      1.0  0.06865  0.01214  0.36474  1.0000
  I   I348      1.0  0.03893  0.01516  0.70081  1.0000
  I   I349      1.0  0.33825  0.22058  0.05782  1.0000
  I   I350      1.0  0.34427  0.20231  0.40737  1.0000
  I   I351      1.0  0.32603  0.20802  0.74242  1.0000
  I   I352      1.0  0.38986  0.44806  0.07520  1.0000
  I   I353      1.0  0.36735  0.45119  0.39221  1.0000
  I   I354      1.0  0.36790  0.46098  0.73287  1.0000
  I   I355      1.0  0.25407  0.77355  0.04339  1.0000
  I   I356      1.0  0.25628  0.77790  0.36131  1.0000
  I   I357      1.0  0.27881  0.76983  0.70138  1.0000
  I   I358      1.0  0.33941  0.96073  0.98182  1.0000
  I   I359      1.0  0.34297  0.94559  0.28950  1.0000
  I   I360      1.0  0.31273  0.96071  0.61389  1.0000
  I   I361      1.0  0.61184  0.19188  0.12577  1.0000
  I   I362      1.0  0.59874  0.21835  0.47723  1.0000
  I   I363      1.0  0.61636  0.19613  0.80293  1.0000
  I   I364      1.0  0.53062  0.52284  0.01461  1.0000
  I   I365      1.0  0.54052  0.53858  0.42598  1.0000
  I   I366      1.0  0.56323  0.50784  0.73339  1.0000
  I   I367      1.0  0.58809  0.70353  0.00279  1.0000
  I   I368      1.0  0.58756  0.71065  0.32780  1.0000
  I   I369      1.0  0.57039  0.70279  0.68185  1.0000
  I   I370      1.0  0.54833  0.99474  0.07372  1.0000
  I   I371      1.0  0.54149  0.98240  0.40229  1.0000
  I   I372      1.0  0.54432  0.97412  0.72166  1.0000
  I   I373      1.0  0.77741  0.27205  0.03223  1.0000
  I   I374      1.0  0.79430  0.26509  0.35594  1.0000
  I   I375      1.0  0.79154  0.26785  0.70210  1.0000
  I   I376      1.0  0.81898  0.45114  0.95427  1.0000
  I   I377      1.0  0.83004  0.44571  0.31447  1.0000
  I   I378      1.0  0.84531  0.43767  0.63557  1.0000
  I   I379      1.0  0.83697  0.72690  0.06091  1.0000
  I   I380      1.0  0.82229  0.71615  0.34877  1.0000
  I   I381      1.0  0.82755  0.71450  0.66174  1.0000
  I   I382      1.0  0.88844  0.97396  0.07430  1.0000
  I   I383      1.0  0.86428  0.98582  0.45069  1.0000
  I   I384      1.0  0.84928  0.98329  0.75359  1.0000
