data_image0
_chemical_formula_structural       Ti96I384
_chemical_formula_sum              "Ti96 I384"
_cell_length_a       77.058
_cell_length_b       77.1314
_cell_length_c       37.7048
_cell_angle_alpha    88.7757
_cell_angle_beta     88.7757
_cell_angle_gamma    62.1586

_space_group_name_H-M_alt    "P 1"
_space_group_IT_number       1

loop_
  _space_group_symop_operation_xyz
  'x, y, z'

loop_
  _atom_site_type_symbol
  _atom_site_label
  _atom_site_symmetry_multiplicity
  _atom_site_fract_x
  _atom_site_fract_y
  _atom_site_fract_z
  _atom_site_occupancy
  Ti  Ti1       1.0  0.96132  0.72091  0.39829  1.0000
  Ti  Ti2       1.0  0.53960  0.80084  0.68497  1.0000
  Ti  Ti3       1.0  0.06581  0.18158  0.50941  1.0000
  Ti  Ti4       1.0  0.20940  0.17030  0.89702  1.0000
  Ti  Ti5       1.0  0.49702  0.04694  0.53019  1.0000
  Ti  Ti6       1.0  0.63088  0.59094  0.22465  1.0000
  Ti  Ti7       1.0  0.78702  0.81913  0.23594  1.0000
  Ti  Ti8       1.0  0.01708  0.10438  0.69169  1.0000
  Ti  Ti9       1.0  0.09563  0.34410  0.77231  1.0000
  Ti  Ti10      1.0  0.70869  0.59454  0.46556  1.0000
  Ti  Ti11      1.0  0.95508  0.03834  0.94631  1.0000
  Ti  Ti12      1.0  0.55813  0.92727  0.55984  1.0000
  Ti  Ti13      1.0  0.93471  0.57098  0.82096  1.0000
  Ti  Ti14      1.0  0.26018  0.14799  0.83695  1.0000
  Ti  Ti15      1.0  0.91264  0.21504  0.38074  1.0000
  Ti  Ti16      1.0  0.09505  0.99871  0.86778  1.0000
  Ti  Ti17      1.0  0.34214  0.36460  0.31536  1.0000
  Ti  Ti18      1.0  0.76974  0.23519  0.89026  1.0000
  Ti  Ti19      1.0  0.46574  0.27739  0.71995  1.0000
  Ti  Ti20      1.0  0.03444  0.70908  0.66837  1.0000
  Ti  Ti21      1.0  0.00080  0.13939  0.77090  1.0000
  Ti  Ti22      1.0  0.54381  0.49760  0.43154  1.0000
  Ti  Ti23      1.0  0.25628  0.42307  0.64423  1.0000
  Ti  Ti24      1.0  0.49516  0.29164  0.42083  1.0000
  Ti  Ti25      1.0  0.74167  0.35559  0.13453  1.0000
  Ti  Ti26      1.0  0.12273  0.75377  0.34720  1.0000
  Ti  Ti27      1.0  0.73356  0.81792  0.92696  1.0000
  Ti  Ti28      1.0  0.35567  0.96423  0.15102  1.0000
  Ti  Ti29      1.0  0.97058  0.02576  0.64635  1.0000
  Ti  Ti30      1.0  0.18146  0.35382  0.17583  1.0000
  Ti  Ti31      1.0  0.83238  0.16242  0.29085  1.0000
  Ti  Ti32      1.0  0.48437  0.66142  0.33456  1.0000
  Ti  Ti33      1.0  0.54537  0.28906  0.23227  1.0000
  Ti  Ti34      1.0  0.65293  0.40328  0.74172  1.0000
  Ti  Ti35      1.0  0.68816  0.84682  0.82587  1.0000
  Ti  Ti36      1.0  0.39973  0.20325  0.39731  1.0000
  Ti  Ti37      1.0  0.31800  0.27941  0.76173  1.0000
  Ti  Ti38      1.0  0.39472  0.31927  0.97107  1.0000
  Ti  Ti39      1.0  0.78874  0.50603  0.50255  1.0000
  Ti  Ti40      1.0  0.66517  0.60958  0.56024  1.0000
  Ti  Ti41      1.0  0.03814  0.66490  0.90690  1.0000
  Ti  Ti42      1.0  0.87074  0.66674  0.50957  1.0000
  Ti  Ti43      1.0  0.15161  0.86278  0.29594  1.0000
  Ti  Ti44      1.0  0.95596  0.25347  0.73511  1.0000
  Ti  Ti45      1.0  0.85125  0.50725  0.22457  1.0000
  Ti  Ti46      1.0  0.81810  0.32812  0.90423  1.0000
  Ti  Ti47      1.0  0.85132  0.11225  0.90864  1.0000
  Ti  Ti48      1.0  0.89099  0.96535  0.41080  1.0000
  Ti  Ti49      1.0  0.19575  0.87447  0.25249  1.0000
  Ti  Ti50      1.0  0.03610  0.54013  0.12600  1.0000
  Ti  Ti51      1.0  0.56040  0.76206  0.61146  1.0000
  Ti  Ti52      1.0  0.41296  0.57531  0.50717  1.0000
  Ti  Ti53      1.0  0.35759  0.68901  0.62952  1.0000
  Ti  Ti54      1.0  0.34558  0.79675  0.75929  1.0000
  Ti  Ti55      1.0  0.58892  0.65586  0.71315  1.0000
  Ti  Ti56      1.0  0.75350  0.00488  0.74063  1.0000
  Ti  Ti57      1.0  0.07182  0.38266  0.71945  1.0000
  Ti  Ti58      1.0  0.43260  0.25865  0.10716  1.0000
  Ti  Ti59      1.0  0.13147  0.94172  0.90910  1.0000
  Ti  Ti60      1.0  0.88208  0.19412  0.02071  1.0000
  Ti  Ti61      1.0  0.55981  0.16157  0.18083  1.0000
  Ti  Ti62      1.0  0.88464  0.59447  0.79247  1.0000
  Ti  Ti63      1.0  0.10069  0.66989  0.68008  1.0000
  Ti  Ti64      1.0  0.75355  0.25209  0.94950  1.0000
  Ti  Ti65      1.0  0.08846  0.49399  0.93219  1.0000
  Ti  Ti66      1.0  0.38578  0.98142  0.14788  1.0000
  Ti  Ti67      1.0  0.27916  0.44958  0.08059  1.0000
  Ti  Ti68      1.0  0.83147  0.15379  0.64001  1.0000
  Ti  Ti69      1.0  0.11870  0.71409  0.43643  1.0000
  Ti  Ti70      1.0  0.20499  0.98315  0.52438  1.0000
  Ti  Ti71      1.0  0.24630  0.65591  0.25493  1.0000
  Ti  Ti72      1.0  0.87080  0.09613  0.82584  1.0000
  Ti  Ti73      1.0  0.63376  0.35219  0.35653  1.0000
  Ti  Ti74      1.0  0.73453  0.37017  0.23747  1.0000
  Ti  Ti75      1.0  0.85360  0.71487  0.24913  1.0000
  Ti  Ti76      1.0  0.73101  0.03713  0.33820  1.0000
  Ti  Ti77      1.0  0.90837  0.22861  0.26709  1.0000
  Ti  Ti78      1.0  0.99923  0.98030  0.68080  1.0000
  Ti  Ti79      1.0  0.46699  0.90557  0.39919  1.0000
  Ti  Ti80      1.0  0.76154  0.67849  0.52140  1.0000
  Ti  Ti81      1.0  0.21077  0.43667  0.62882  1.0000
  Ti  Ti82      1.0  0.69478  0.52251  0.73359  1.0000
  Ti  Ti83      1.0  0.80853  0.54203  0.28327  1.0000
  Ti  Ti84      1.0  0.32888  0.23201  0.43919  1.0000
  Ti  Ti85      1.0  0.28810  0.30431  0.70145  1.0000
  Ti  Ti86      1.0  0.75012  0.86275  0.25553  1.0000
  Ti  Ti87      1.0  0.68234  0.69903  0.34451  1.0000
  Ti  Ti88      1.0  0.11472  0.92225  0.57023  1.0000
  Ti  Ti89      1.0  0.99761  0.51531  0.61017  1.0000
  Ti  Ti90      1.0  0.25537  0.25968  0.98794  1.0000
  Ti  Ti91      1.0  0.67690  0.29543  0.64841  1.0000
  Ti  Ti92      1.0  0.34104  0.59817  0.14431  1.0000
  Ti  Ti93      1.0  0.32862  0.57117  0.76055  1.0000
  Ti  Ti94      1.0  0.87983  0.94863  0.35952  1.0000
  Ti  Ti95      1.0  0.56798  0.10630  0.66293  1.0000
  Ti  Ti96      1.0  0.50433  0.48403  0.48303  1.0000
  I   I1        1.0  0.88838  0.11068  0.78375  1.0000
  I   I2        1.0  0.52270  0.78083  0.64321  1.0000
  I   I3        1.0  0.19545  0.86976  0.18492  1.0000
  I   I4        1.0  0.32998  0.71531  0.59040  1.0000
  I   I5        1.0  0.66663  0.56778  0.19749  1.0000
  I   I6        1.0  0.37457  0.76277  0.73603  1.0000
  I   I7        1.0  0.00996  0.16781  0.78654  1.0000
  I   I8        1.0  0.73743  0.00673  0.80040  1.0000
  I   I9        1.0  0.11361  0.36553  0.73992  1.0000
  I   I10       1.0  0.66926  0.58413  0.61121  1.0000
  I   I11       1.0  0.98567  0.01445  0.97853  1.0000
  I   I12       1.0  0.50703  0.05877  0.58622  1.0000
  I   I13       1.0  0.88064  0.59319  0.72595  1.0000
  I   I14       1.0  0.12347  0.67046  0.62702  1.0000
  I   I15       1.0  0.93402  0.20289  0.31727  1.0000
  I   I16       1.0  0.67183  0.63307  0.60595  1.0000
  I   I17       1.0  0.40447  0.94189  0.15830  1.0000
  I   I18       1.0  0.72672  0.27929  0.98910  1.0000
  I   I19       1.0  0.08023  0.65084  0.65168  1.0000
  I   I20       1.0  0.95941  0.06902  0.92827  1.0000
  I   I21       1.0  0.05320  0.08902  0.66888  1.0000
  I   I22       1.0  0.25534  0.39088  0.61950  1.0000
  I   I23       1.0  0.07912  0.93742  0.54780  1.0000
  I   I24       1.0  0.22920  0.96689  0.46945  1.0000
  I   I25       1.0  0.73656  0.38701  0.09819  1.0000
  I   I26       1.0  0.85242  0.68266  0.27336  1.0000
  I   I27       1.0  0.70162  0.84995  0.88638  1.0000
  I   I28       1.0  0.35274  0.94679  0.22171  1.0000
  I   I29       1.0  0.99486  0.03962  0.65899  1.0000
  I   I30       1.0  0.19105  0.32487  0.13066  1.0000
  I   I31       1.0  0.76321  0.67685  0.59166  1.0000
  I   I32       1.0  0.19709  0.43627  0.56782  1.0000
  I   I33       1.0  0.48451  0.92071  0.35670  1.0000
  I   I34       1.0  0.71224  0.82809  0.77336  1.0000
  I   I35       1.0  0.30671  0.22179  0.39965  1.0000
  I   I36       1.0  0.68856  0.39774  0.71678  1.0000
  I   I37       1.0  0.25730  0.33881  0.72721  1.0000
  I   I38       1.0  0.79832  0.53265  0.47037  1.0000
  I   I39       1.0  0.33190  0.29614  0.80399  1.0000
  I   I40       1.0  0.96851  0.27456  0.69601  1.0000
  I   I41       1.0  0.99979  0.55499  0.15579  1.0000
  I   I42       1.0  0.63359  0.62333  0.52402  1.0000
  I   I43       1.0  0.45094  0.27925  0.13016  1.0000
  I   I44       1.0  0.97757  0.21436  0.72489  1.0000
  I   I45       1.0  0.87295  0.50807  0.28045  1.0000
  I   I46       1.0  0.53312  0.13371  0.67557  1.0000
  I   I47       1.0  0.84106  0.14692  0.94716  1.0000
  I   I48       1.0  0.84945  0.97515  0.39698  1.0000
  I   I49       1.0  0.15405  0.89378  0.26639  1.0000
  I   I50       1.0  0.50000  0.82611  0.67893  1.0000
  I   I51       1.0  0.54077  0.81472  0.61525  1.0000
  I   I52       1.0  0.74349  0.65994  0.49815  1.0000
  I   I53       1.0  0.38892  0.69215  0.64627  1.0000
  I   I54       1.0  0.35826  0.78586  0.82160  1.0000
  I   I55       1.0  0.73152  0.86110  0.31108  1.0000
  I   I56       1.0  0.01411  0.09176  0.62993  1.0000
  I   I57       1.0  0.57257  0.07068  0.65753  1.0000
  I   I58       1.0  0.73928  0.56099  0.46988  1.0000
  I   I59       1.0  0.11466  0.98654  0.93624  1.0000
  I   I60       1.0  0.85447  0.19785  0.06768  1.0000
  I   I61       1.0  0.96634  0.53655  0.80609  1.0000
  I   I62       1.0  0.88231  0.62875  0.79853  1.0000
  I   I63       1.0  0.04333  0.69901  0.73672  1.0000
  I   I64       1.0  0.06061  0.02604  0.88426  1.0000
  I   I65       1.0  0.11966  0.46359  0.91124  1.0000
  I   I66       1.0  0.34783  0.93712  0.13102  1.0000
  I   I67       1.0  0.44739  0.28937  0.78381  1.0000
  I   I68       1.0  0.01648  0.69413  0.62882  1.0000
  I   I69       1.0  0.13367  0.71253  0.36075  1.0000
  I   I70       1.0  0.17767  0.01665  0.49223  1.0000
  I   I71       1.0  0.24088  0.45354  0.58986  1.0000
  I   I72       1.0  0.85208  0.08604  0.95574  1.0000
  I   I73       1.0  0.71124  0.83227  0.98960  1.0000
  I   I74       1.0  0.15903  0.74212  0.33520  1.0000
  I   I75       1.0  0.11229  0.79139  0.34006  1.0000
  I   I76       1.0  0.89307  0.20252  0.26590  1.0000
  I   I77       1.0  0.91601  0.18016  0.40351  1.0000
  I   I78       1.0  0.86304  0.14079  0.33096  1.0000
  I   I79       1.0  0.53203  0.26787  0.26433  1.0000
  I   I80       1.0  0.99434  0.69058  0.42039  1.0000
  I   I81       1.0  0.47345  0.68363  0.38733  1.0000
  I   I82       1.0  0.70824  0.49594  0.67780  1.0000
  I   I83       1.0  0.82683  0.53932  0.35585  1.0000
  I   I84       1.0  0.40424  0.22131  0.45658  1.0000
  I   I85       1.0  0.28568  0.31194  0.62637  1.0000
  I   I86       1.0  0.37066  0.97008  0.08625  1.0000
  I   I87       1.0  0.76700  0.49084  0.48300  1.0000
  I   I88       1.0  0.70693  0.57857  0.40662  1.0000
  I   I89       1.0  0.64673  0.37352  0.77323  1.0000
  I   I90       1.0  0.05188  0.50378  0.14618  1.0000
  I   I91       1.0  0.67649  0.27242  0.70448  1.0000
  I   I92       1.0  0.31684  0.63512  0.15517  1.0000
  I   I93       1.0  0.92154  0.25450  0.73558  1.0000
  I   I94       1.0  0.89083  0.92766  0.42361  1.0000
  I   I95       1.0  0.85451  0.30369  0.92151  1.0000
  I   I96       1.0  0.53554  0.53421  0.44967  1.0000
  I   I97       1.0  0.09052  0.14490  0.50438  1.0000
  I   I98       1.0  0.95411  0.70713  0.33609  1.0000
  I   I99       1.0  0.55280  0.76221  0.54316  1.0000
  I   I100      1.0  0.24771  0.17276  0.89227  1.0000
  I   I101      1.0  0.13740  0.91112  0.51665  1.0000
  I   I102      1.0  0.48866  0.06077  0.46317  1.0000
  I   I103      1.0  0.74604  0.89676  0.25789  1.0000
  I   I104      1.0  0.56070  0.64930  0.70475  1.0000
  I   I105      1.0  0.09092  0.33702  0.70237  1.0000
  I   I106      1.0  0.57068  0.95100  0.57717  1.0000
  I   I107      1.0  0.72450  0.61866  0.45728  1.0000
  I   I108      1.0  0.56351  0.89618  0.60489  1.0000
  I   I109      1.0  0.93100  0.22621  0.43133  1.0000
  I   I110      1.0  0.93733  0.55722  0.88508  1.0000
  I   I111      1.0  0.09268  0.70492  0.70087  1.0000
  I   I112      1.0  0.73167  0.26723  0.88361  1.0000
  I   I113      1.0  0.07854  0.52114  0.88261  1.0000
  I   I114      1.0  0.34573  0.36805  0.25123  1.0000
  I   I115      1.0  0.24209  0.46102  0.06051  1.0000
  I   I116      1.0  0.30219  0.41701  0.04692  1.0000
  I   I117      1.0  0.85134  0.15867  0.59095  1.0000
  I   I118      1.0  0.47189  0.51397  0.46517  1.0000
  I   I119      1.0  0.28883  0.47934  0.07095  1.0000
  I   I120      1.0  0.84171  0.13503  0.84730  1.0000
  I   I121      1.0  0.59648  0.37621  0.35747  1.0000
  I   I122      1.0  0.77687  0.33143  0.10493  1.0000
  I   I123      1.0  0.83490  0.73620  0.30222  1.0000
  I   I124      1.0  0.18687  0.38816  0.16302  1.0000
  I   I125      1.0  0.70269  0.06083  0.39232  1.0000
  I   I126      1.0  0.03733  0.97700  0.67954  1.0000
  I   I127      1.0  0.51248  0.32193  0.21928  1.0000
  I   I128      1.0  0.23303  0.13929  0.93653  1.0000
  I   I129      1.0  0.19190  0.41705  0.65700  1.0000
  I   I130      1.0  0.36550  0.20373  0.43249  1.0000
  I   I131      1.0  0.67281  0.50575  0.76229  1.0000
  I   I132      1.0  0.65712  0.84239  0.81782  1.0000
  I   I133      1.0  0.77699  0.52208  0.56159  1.0000
  I   I134      1.0  0.37849  0.35724  0.97613  1.0000
  I   I135      1.0  0.35161  0.00302  0.18849  1.0000
  I   I136      1.0  0.90404  0.65861  0.48238  1.0000
  I   I137      1.0  0.43546  0.57974  0.45745  1.0000
  I   I138      1.0  0.96591  0.52233  0.57860  1.0000
  I   I139      1.0  0.66142  0.33172  0.66998  1.0000
  I   I140      1.0  0.37093  0.58879  0.10038  1.0000
  I   I141      1.0  0.29976  0.57105  0.73702  1.0000
  I   I142      1.0  0.91215  0.92375  0.32589  1.0000
  I   I143      1.0  0.07539  0.18101  0.57698  1.0000
  I   I144      1.0  0.51948  0.50991  0.49643  1.0000
  I   I145      1.0  0.92959  0.74548  0.42819  1.0000
  I   I146      1.0  0.56292  0.81603  0.69928  1.0000
  I   I147      1.0  0.03123  0.17945  0.51292  1.0000
  I   I148      1.0  0.37257  0.60116  0.51062  1.0000
  I   I149      1.0  0.46557  0.04032  0.54350  1.0000
  I   I150      1.0  0.63269  0.59747  0.29259  1.0000
  I   I151      1.0  0.59334  0.68886  0.73139  1.0000
  I   I152      1.0  0.03555  0.11051  0.77416  1.0000
  I   I153      1.0  0.13451  0.32137  0.78779  1.0000
  I   I154      1.0  0.16387  0.82705  0.29400  1.0000
  I   I155      1.0  0.95369  0.01245  0.90778  1.0000
  I   I156      1.0  0.90926  0.19624  0.05117  1.0000
  I   I157      1.0  0.93999  0.21708  0.22904  1.0000
  I   I158      1.0  0.10347  0.64437  0.73674  1.0000
  I   I159      1.0  0.52537  0.16468  0.20281  1.0000
  I   I160      1.0  0.75516  0.21513  0.94021  1.0000
  I   I161      1.0  0.33825  0.33162  0.32581  1.0000
  I   I162      1.0  0.80335  0.20571  0.88343  1.0000
  I   I163      1.0  0.48648  0.29592  0.73165  1.0000
  I   I164      1.0  0.80198  0.14346  0.63565  1.0000
  I   I165      1.0  0.00631  0.09050  0.75850  1.0000
  I   I166      1.0  0.49485  0.45848  0.46439  1.0000
  I   I167      1.0  0.26197  0.44936  0.68566  1.0000
  I   I168      1.0  0.47829  0.31376  0.36700  1.0000
  I   I169      1.0  0.72376  0.40757  0.24322  1.0000
  I   I170      1.0  0.71265  0.38101  0.17731  1.0000
  I   I171      1.0  0.75762  0.78395  0.95092  1.0000
  I   I172      1.0  0.74451  0.00277  0.37441  1.0000
  I   I173      1.0  0.99384  0.99633  0.74866  1.0000
  I   I174      1.0  0.14808  0.37737  0.15178  1.0000
  I   I175      1.0  0.83994  0.19424  0.30741  1.0000
  I   I176      1.0  0.50843  0.66520  0.28735  1.0000
  I   I177      1.0  0.44870  0.90539  0.33938  1.0000
  I   I178      1.0  0.69386  0.55516  0.71391  1.0000
  I   I179      1.0  0.76931  0.56048  0.28113  1.0000
  I   I180      1.0  0.42431  0.17278  0.43462  1.0000
  I   I181      1.0  0.31333  0.32009  0.71671  1.0000
  I   I182      1.0  0.77764  0.85425  0.18948  1.0000
  I   I183      1.0  0.66990  0.69842  0.28197  1.0000
  I   I184      1.0  0.11607  0.95540  0.58175  1.0000
  I   I185      1.0  0.99987  0.50419  0.67294  1.0000
  I   I186      1.0  0.88184  0.63481  0.54356  1.0000
  I   I187      1.0  0.35569  0.58241  0.20776  1.0000
  I   I188      1.0  0.95477  0.27411  0.78564  1.0000
  I   I189      1.0  0.71477  0.66648  0.34471  1.0000
  I   I190      1.0  0.80305  0.30908  0.85426  1.0000
  I   I191      1.0  0.21717  0.27331  0.98901  1.0000
  I   I192      1.0  0.10010  0.17828  0.48090  1.0000
  I   I193      1.0  0.94511  0.05984  0.68238  1.0000
  I   I194      1.0  0.03426  0.53827  0.04616  1.0000
  I   I195      1.0  0.03729  0.21796  0.53996  1.0000
  I   I196      1.0  0.19335  0.15133  0.86673  1.0000
  I   I197      1.0  0.41233  0.27372  0.04925  1.0000
  I   I198      1.0  0.61702  0.62645  0.19568  1.0000
  I   I199      1.0  0.47808  0.63175  0.34572  1.0000
  I   I200      1.0  0.77324  0.96713  0.73555  1.0000
  I   I201      1.0  0.06832  0.38260  0.79143  1.0000
  I   I202      1.0  0.14000  0.95550  0.84687  1.0000
  I   I203      1.0  0.11449  0.74344  0.28819  1.0000
  I   I204      1.0  0.52075  0.94755  0.56931  1.0000
  I   I205      1.0  0.95869  0.58473  0.83074  1.0000
  I   I206      1.0  0.18648  0.19920  0.94091  1.0000
  I   I207      1.0  0.88890  0.25880  0.22290  1.0000
  I   I208      1.0  0.08932  0.96622  0.90486  1.0000
  I   I209      1.0  0.30825  0.39658  0.31940  1.0000
  I   I210      1.0  0.49044  0.86527  0.38601  1.0000
  I   I211      1.0  0.21802  0.00288  0.55248  1.0000
  I   I212      1.0  0.07205  0.70537  0.63257  1.0000
  I   I213      1.0  0.11621  0.71690  0.50318  1.0000
  I   I214      1.0  0.57558  0.50229  0.40508  1.0000
  I   I215      1.0  0.29451  0.39695  0.62148  1.0000
  I   I216      1.0  0.31650  0.59115  0.82398  1.0000
  I   I217      1.0  0.71740  0.34419  0.10440  1.0000
  I   I218      1.0  0.83244  0.73080  0.19442  1.0000
  I   I219      1.0  0.64646  0.36099  0.41508  1.0000
  I   I220      1.0  0.88356  0.22062  0.42388  1.0000
  I   I221      1.0  0.99410  0.98900  0.60653  1.0000
  I   I222      1.0  0.70576  0.04486  0.28758  1.0000
  I   I223      1.0  0.83704  0.17091  0.22728  1.0000
  I   I224      1.0  0.45634  0.67660  0.28213  1.0000
  I   I225      1.0  0.57692  0.28147  0.27587  1.0000
  I   I226      1.0  0.73023  0.49993  0.77331  1.0000
  I   I227      1.0  0.66730  0.88501  0.80430  1.0000
  I   I228      1.0  0.39229  0.18263  0.34157  1.0000
  I   I229      1.0  0.36954  0.37935  0.32518  1.0000
  I   I230      1.0  0.42963  0.30818  0.00577  1.0000
  I   I231      1.0  0.81896  0.47321  0.52651  1.0000
  I   I232      1.0  0.29867  0.13643  0.83809  1.0000
  I   I233      1.0  0.03121  0.63581  0.90690  1.0000
  I   I234      1.0  0.27431  0.27774  0.96356  1.0000
  I   I235      1.0  0.13677  0.86983  0.35838  1.0000
  I   I236      1.0  0.34722  0.58868  0.72445  1.0000
  I   I237      1.0  0.67316  0.27558  0.59496  1.0000
  I   I238      1.0  0.58321  0.09200  0.59683  1.0000
  I   I239      1.0  0.50272  0.47701  0.55154  1.0000
  I   I240      1.0  0.88097  0.99692  0.44728  1.0000
  I   I241      1.0  0.97755  0.74183  0.38673  1.0000
  I   I242      1.0  0.53538  0.78706  0.74382  1.0000
  I   I243      1.0  0.79009  0.34024  0.94971  1.0000
  I   I244      1.0  0.13834  0.89457  0.61724  1.0000
  I   I245      1.0  0.34729  0.68878  0.69658  1.0000
  I   I246      1.0  0.60642  0.57846  0.20228  1.0000
  I   I247      1.0  0.78580  0.79051  0.27282  1.0000
  I   I248      1.0  0.98559  0.13861  0.83248  1.0000
  I   I249      1.0  0.07830  0.32464  0.79914  1.0000
  I   I250      1.0  0.10967  0.02053  0.85428  1.0000
  I   I251      1.0  0.93395  0.05488  0.00192  1.0000
  I   I252      1.0  0.87071  0.22474  0.97639  1.0000
  I   I253      1.0  0.92548  0.58583  0.75653  1.0000
  I   I254      1.0  0.26813  0.15519  0.77100  1.0000
  I   I255      1.0  0.57241  0.12844  0.14762  1.0000
  I   I256      1.0  0.08905  0.48457  0.00280  1.0000
  I   I257      1.0  0.31894  0.24678  0.78317  1.0000
  I   I258      1.0  0.75176  0.23291  0.82707  1.0000
  I   I259      1.0  0.29028  0.43327  0.14088  1.0000
  I   I260      1.0  0.81853  0.18293  0.68714  1.0000
  I   I261      1.0  0.97038  0.13922  0.74040  1.0000
  I   I262      1.0  0.52303  0.50363  0.37492  1.0000
  I   I263      1.0  0.24540  0.67257  0.31656  1.0000
  I   I264      1.0  0.38790  0.22717  0.33631  1.0000
  I   I265      1.0  0.74786  0.33617  0.19967  1.0000
  I   I266      1.0  0.11399  0.75339  0.42059  1.0000
  I   I267      1.0  0.65453  0.36224  0.31890  1.0000
  I   I268      1.0  0.31967  0.98418  0.14540  1.0000
  I   I269      1.0  0.00546  0.94609  0.69216  1.0000
  I   I270      1.0  0.38110  0.01207  0.10169  1.0000
  I   I271      1.0  0.79656  0.17330  0.29218  1.0000
  I   I272      1.0  0.19132  0.47075  0.66015  1.0000
  I   I273      1.0  0.55960  0.27060  0.17142  1.0000
  I   I274      1.0  0.00684  0.69727  0.91811  1.0000
  I   I275      1.0  0.71954  0.80058  0.88289  1.0000
  I   I276      1.0  0.31656  0.26877  0.42507  1.0000
  I   I277      1.0  0.68572  0.53594  0.79934  1.0000
  I   I278      1.0  0.41015  0.31599  0.89683  1.0000
  I   I279      1.0  0.86182  0.47501  0.19458  1.0000
  I   I280      1.0  0.41423  0.54542  0.47036  1.0000
  I   I281      1.0  0.07297  0.65460  0.93794  1.0000
  I   I282      1.0  0.84269  0.68516  0.46381  1.0000
  I   I283      1.0  0.19384  0.83952  0.28826  1.0000
  I   I284      1.0  0.52851  0.28939  0.39488  1.0000
  I   I285      1.0  0.66942  0.73468  0.35527  1.0000
  I   I286      1.0  0.56817  0.14056  0.63973  1.0000
  I   I287      1.0  0.84168  0.08663  0.86788  1.0000
  I   I288      1.0  0.88594  0.98347  0.34378  1.0000
  I   I289      1.0  0.19500  0.90665  0.27134  1.0000
  I   I290      1.0  0.25885  0.25088  0.05492  1.0000
  I   I291      1.0  0.55912  0.72935  0.62640  1.0000
  I   I292      1.0  0.43819  0.56490  0.55516  1.0000
  I   I293      1.0  0.37340  0.65352  0.61733  1.0000
  I   I294      1.0  0.30644  0.81829  0.77103  1.0000
  I   I295      1.0  0.82390  0.80487  0.22098  1.0000
  I   I296      1.0  0.73269  0.03242  0.69831  1.0000
  I   I297      1.0  0.03191  0.40383  0.70061  1.0000
  I   I298      1.0  0.40943  0.24137  0.13023  1.0000
  I   I299      1.0  0.09021  0.98571  0.80800  1.0000
  I   I300      1.0  0.35407  0.53570  0.77963  1.0000
  I   I301      1.0  0.56789  0.16162  0.24600  1.0000
  I   I302      1.0  0.90287  0.55437  0.80469  1.0000
  I   I303      1.0  0.67632  0.62745  0.49903  1.0000
  I   I304      1.0  0.78061  0.23250  0.99317  1.0000
  I   I305      1.0  0.14303  0.93314  0.97323  1.0000
  I   I306      1.0  0.76619  0.81550  0.18873  1.0000
  I   I307      1.0  0.47500  0.23954  0.72711  1.0000
  I   I308      1.0  0.02144  0.74575  0.66603  1.0000
  I   I309      1.0  0.00608  0.14264  0.68715  1.0000
  I   I310      1.0  0.11811  0.87877  0.26161  1.0000
  I   I311      1.0  0.26657  0.66923  0.21890  1.0000
  I   I312      1.0  0.89257  0.05924  0.83854  1.0000
  I   I313      1.0  0.64487  0.31483  0.33976  1.0000
  I   I314      1.0  0.70495  0.37414  0.27775  1.0000
  I   I315      1.0  0.88724  0.70954  0.26582  1.0000
  I   I316      1.0  0.75774  0.04841  0.33127  1.0000
  I   I317      1.0  0.40308  0.98091  0.21434  1.0000
  I   I318      1.0  0.95072  0.05178  0.60091  1.0000
  I   I319      1.0  0.47950  0.90444  0.46045  1.0000
  I   I320      1.0  0.21363  0.18721  0.83227  1.0000
  I   I321      1.0  0.61538  0.63987  0.65050  1.0000
  I   I322      1.0  0.65595  0.42565  0.79044  1.0000
  I   I323      1.0  0.85763  0.53240  0.18919  1.0000
  I   I324      1.0  0.32353  0.22429  0.50169  1.0000
  I   I325      1.0  0.27895  0.29385  0.77399  1.0000
  I   I326      1.0  0.78515  0.84888  0.29405  1.0000
  I   I327      1.0  0.80445  0.53633  0.21150  1.0000
  I   I328      1.0  0.69715  0.57614  0.51407  1.0000
  I   I329      1.0  0.00929  0.54403  0.62174  1.0000
  I   I330      1.0  0.27717  0.22298  0.96865  1.0000
  I   I331      1.0  0.65280  0.69434  0.37338  1.0000
  I   I332      1.0  0.46407  0.22607  0.10616  1.0000
  I   I333      1.0  0.62687  0.41768  0.69228  1.0000
  I   I334      1.0  0.85667  0.93902  0.31819  1.0000
  I   I335      1.0  0.82230  0.35778  0.88128  1.0000
  I   I336      1.0  0.54122  0.46478  0.43638  1.0000
  I   I337      1.0  0.23310  0.86172  0.23530  1.0000
  I   I338      1.0  0.06226  0.54999  0.14332  1.0000
  I   I339      1.0  0.58255  0.76223  0.66245  1.0000
  I   I340      1.0  0.75221  0.71086  0.48022  1.0000
  I   I341      1.0  0.51742  0.01018  0.52617  1.0000
  I   I342      1.0  0.36044  0.82164  0.74399  1.0000
  I   I343      1.0  0.61328  0.62434  0.73953  1.0000
  I   I344      1.0  0.77937  0.01203  0.77146  1.0000
  I   I345      1.0  0.07134  0.41683  0.70064  1.0000
  I   I346      1.0  0.20991  0.94989  0.54982  1.0000
  I   I347      1.0  0.12297  0.91463  0.89239  1.0000
  I   I348      1.0  0.89406  0.15753  0.00834  1.0000
  I   I349      1.0  0.53760  0.20104  0.16942  1.0000
  I   I350      1.0  0.85589  0.59423  0.82910  1.0000
  I   I351      1.0  0.25155  0.12040  0.83113  1.0000
  I   I352      1.0  0.78701  0.26061  0.90090  1.0000
  I   I353      1.0  0.05712  0.48896  0.92690  1.0000
  I   I354      1.0  0.72804  0.85914  0.20163  1.0000
  I   I355      1.0  0.46492  0.28393  0.65146  1.0000
  I   I356      1.0  0.85746  0.13302  0.68870  1.0000
  I   I357      1.0  0.07951  0.72836  0.42323  1.0000
  I   I358      1.0  0.47449  0.31944  0.47316  1.0000
  I   I359      1.0  0.22500  0.65434  0.20054  1.0000
  I   I360      1.0  0.85187  0.09139  0.77308  1.0000
  I   I361      1.0  0.75631  0.81917  0.87371  1.0000
  I   I362      1.0  0.76463  0.35401  0.27645  1.0000
  I   I363      1.0  0.13435  0.67675  0.42751  1.0000
  I   I364      1.0  0.18588  0.33851  0.23669  1.0000
  I   I365      1.0  0.89212  0.24819  0.33201  1.0000
  I   I366      1.0  0.95437  0.00617  0.67996  1.0000
  I   I367      1.0  0.42808  0.92422  0.42999  1.0000
  I   I368      1.0  0.79413  0.65634  0.49033  1.0000
  I   I369      1.0  0.23383  0.42881  0.69676  1.0000
  I   I370      1.0  0.02512  0.67931  0.83967  1.0000
  I   I371      1.0  0.81773  0.57088  0.25445  1.0000
  I   I372      1.0  0.48553  0.26301  0.41675  1.0000
  I   I373      1.0  0.31927  0.27364  0.67972  1.0000
  I   I374      1.0  0.36425  0.31530  0.96484  1.0000
  I   I375      1.0  0.83055  0.50377  0.29052  1.0000
  I   I376      1.0  0.26333  0.61897  0.26855  1.0000
  I   I377      1.0  0.02737  0.48655  0.58741  1.0000
  I   I378      1.0  0.86081  0.68159  0.57680  1.0000
  I   I379      1.0  0.71252  0.28917  0.66095  1.0000
  I   I380      1.0  0.32190  0.58025  0.11954  1.0000
  I   I381      1.0  0.57458  0.91610  0.50206  1.0000
  I   I382      1.0  0.92740  0.94455  0.42033  1.0000
  I   I383      1.0  0.58019  0.09905  0.72737  1.0000
  I   I384      1.0  0.88793  0.10404  0.89069  1.0000
