data_image0
_chemical_formula_structural       Ti96I384
_chemical_formula_sum              "Ti96 I384"
_cell_length_a       75.8186
_cell_length_b       75.7205
_cell_length_c       37.048
_cell_angle_alpha    88.7757
_cell_angle_beta     88.7757
_cell_angle_gamma    62.1586

_space_group_name_H-M_alt    "P 1"
_space_group_IT_number       1

loop_
  _space_group_symop_operation_xyz
  'x, y, z'

loop_
  _atom_site_type_symbol
  _atom_site_label
  _atom_site_symmetry_multiplicity
  _atom_site_fract_x
  _atom_site_fract_y
  _atom_site_fract_z
  _atom_site_occupancy
  Ti  Ti1       1.0  0.69490  0.20476  0.91538  1.0000
  Ti  Ti2       1.0  0.45615  0.74669  0.64284  1.0000
  Ti  Ti3       1.0  0.13770  0.09070  0.38135  1.0000
  Ti  Ti4       1.0  0.18678  0.16806  0.98113  1.0000
  Ti  Ti5       1.0  0.31562  0.06128  0.79138  1.0000
  Ti  Ti6       1.0  0.40894  0.64205  0.20587  1.0000
  Ti  Ti7       1.0  0.78965  0.94667  0.17490  1.0000
  Ti  Ti8       1.0  0.35721  0.78814  0.32855  1.0000
  Ti  Ti9       1.0  0.16120  0.51118  0.72587  1.0000
  Ti  Ti10      1.0  0.49260  0.72895  0.42722  1.0000
  Ti  Ti11      1.0  0.31867  0.86464  0.94971  1.0000
  Ti  Ti12      1.0  0.77573  0.12531  0.04650  1.0000
  Ti  Ti13      1.0  0.77092  0.71808  0.64907  1.0000
  Ti  Ti14      1.0  0.16843  0.20043  0.90507  1.0000
  Ti  Ti15      1.0  0.83489  0.39061  0.92404  1.0000
  Ti  Ti16      1.0  0.27129  0.69468  0.41350  1.0000
  Ti  Ti17      1.0  0.18249  0.75673  0.56660  1.0000
  Ti  Ti18      1.0  0.53248  0.05169  0.61059  1.0000
  Ti  Ti19      1.0  0.82338  0.22948  0.89040  1.0000
  Ti  Ti20      1.0  0.11519  0.59105  0.88534  1.0000
  Ti  Ti21      1.0  0.35250  0.74747  0.25437  1.0000
  Ti  Ti22      1.0  0.63326  0.38488  0.82838  1.0000
  Ti  Ti23      1.0  0.26690  0.60016  0.76298  1.0000
  Ti  Ti24      1.0  0.73124  0.24424  0.52481  1.0000
  Ti  Ti25      1.0  0.73190  0.52457  0.15154  1.0000
  Ti  Ti26      1.0  0.03766  0.79908  0.75860  1.0000
  Ti  Ti27      1.0  0.52712  0.61719  0.00779  1.0000
  Ti  Ti28      1.0  0.57886  0.16820  0.86535  1.0000
  Ti  Ti29      1.0  0.05918  0.09227  0.05716  1.0000
  Ti  Ti30      1.0  0.13307  0.82423  0.24347  1.0000
  Ti  Ti31      1.0  0.71248  0.22636  0.03978  1.0000
  Ti  Ti32      1.0  0.46214  0.72563  0.03374  1.0000
  Ti  Ti33      1.0  0.61478  0.20595  0.81353  1.0000
  Ti  Ti34      1.0  0.84101  0.52987  0.16546  1.0000
  Ti  Ti35      1.0  0.54029  0.85168  0.14748  1.0000
  Ti  Ti36      1.0  0.24865  0.19282  0.47871  1.0000
  Ti  Ti37      1.0  0.01747  0.47091  0.77892  1.0000
  Ti  Ti38      1.0  0.30126  0.43461  0.56267  1.0000
  Ti  Ti39      1.0  0.96230  0.21596  0.67702  1.0000
  Ti  Ti40      1.0  0.51200  0.76706  0.38194  1.0000
  Ti  Ti41      1.0  0.80766  0.57631  0.25877  1.0000
  Ti  Ti42      1.0  0.73769  0.89197  0.39693  1.0000
  Ti  Ti43      1.0  0.03188  0.82874  0.44418  1.0000
  Ti  Ti44      1.0  0.76834  0.31303  0.28009  1.0000
  Ti  Ti45      1.0  0.65997  0.90025  0.21189  1.0000
  Ti  Ti46      1.0  0.85714  0.71702  0.03415  1.0000
  Ti  Ti47      1.0  0.04952  0.91590  0.90836  1.0000
  Ti  Ti48      1.0  0.98045  0.06242  0.63077  1.0000
  Ti  Ti49      1.0  0.06481  0.85161  0.39892  1.0000
  Ti  Ti50      1.0  0.09310  0.28279  0.20833  1.0000
  Ti  Ti51      1.0  0.49730  0.72009  0.62810  1.0000
  Ti  Ti52      1.0  0.45657  0.40157  0.96095  1.0000
  Ti  Ti53      1.0  0.37999  0.74260  0.82472  1.0000
  Ti  Ti54      1.0  0.39726  0.90094  0.99791  1.0000
  Ti  Ti55      1.0  0.45970  0.71616  0.10979  1.0000
  Ti  Ti56      1.0  0.74527  0.81030  0.81144  1.0000
  Ti  Ti57      1.0  0.15093  0.52129  0.64661  1.0000
  Ti  Ti58      1.0  0.36562  0.04000  0.06026  1.0000
  Ti  Ti59      1.0  0.35021  0.66245  0.45611  1.0000
  Ti  Ti60      1.0  0.98313  0.15211  0.13994  1.0000
  Ti  Ti61      1.0  0.71142  0.92611  0.55642  1.0000
  Ti  Ti62      1.0  0.81554  0.69028  0.67825  1.0000
  Ti  Ti63      1.0  0.13956  0.61437  0.83897  1.0000
  Ti  Ti64      1.0  0.52503  0.07565  0.55049  1.0000
  Ti  Ti65      1.0  0.75281  0.06120  0.47492  1.0000
  Ti  Ti66      1.0  0.35670  0.20150  0.11926  1.0000
  Ti  Ti67      1.0  0.31867  0.08098  0.41493  1.0000
  Ti  Ti68      1.0  0.58227  0.21144  0.10739  1.0000
  Ti  Ti69      1.0  0.99783  0.80399  0.68708  1.0000
  Ti  Ti70      1.0  0.26573  0.08422  0.44640  1.0000
  Ti  Ti71      1.0  0.15589  0.73857  0.22639  1.0000
  Ti  Ti72      1.0  0.08511  0.86376  0.96787  1.0000
  Ti  Ti73      1.0  0.54665  0.50344  0.14368  1.0000
  Ti  Ti74      1.0  0.69208  0.56016  0.18152  1.0000
  Ti  Ti75      1.0  0.32629  0.39533  0.11947  1.0000
  Ti  Ti76      1.0  0.38903  0.03532  0.59924  1.0000
  Ti  Ti77      1.0  0.87745  0.38501  0.85258  1.0000
  Ti  Ti78      1.0  0.09264  0.04493  0.05469  1.0000
  Ti  Ti79      1.0  0.34263  0.98085  0.43054  1.0000
  Ti  Ti80      1.0  0.57073  0.90012  0.00230  1.0000
  Ti  Ti81      1.0  0.99802  0.68305  0.20485  1.0000
  Ti  Ti82      1.0  0.72929  0.46600  0.66735  1.0000
  Ti  Ti83      1.0  0.14744  0.32204  0.43351  1.0000
  Ti  Ti84      1.0  0.25054  0.25190  0.47311  1.0000
  Ti  Ti85      1.0  0.05826  0.44212  0.72713  1.0000
  Ti  Ti86      1.0  0.78289  0.96574  0.07036  1.0000
  Ti  Ti87      1.0  0.63618  0.93062  0.28498  1.0000
  Ti  Ti88      1.0  0.23365  0.54810  0.95981  1.0000
  Ti  Ti89      1.0  0.18435  0.49615  0.13146  1.0000
  Ti  Ti90      1.0  0.01451  0.41293  0.11518  1.0000
  Ti  Ti91      1.0  0.92253  0.03620  0.36391  1.0000
  Ti  Ti92      1.0  0.43605  0.41604  0.28186  1.0000
  Ti  Ti93      1.0  0.44357  0.58878  0.51912  1.0000
  Ti  Ti94      1.0  0.98786  0.01969  0.61689  1.0000
  Ti  Ti95      1.0  0.16020  0.29346  0.22969  1.0000
  Ti  Ti96      1.0  0.69146  0.37224  0.77477  1.0000
  I   I1        1.0  0.06086  0.90044  0.98861  1.0000
  I   I2        1.0  0.49197  0.72656  0.69797  1.0000
  I   I3        1.0  0.08694  0.86438  0.43263  1.0000
  I   I4        1.0  0.38814  0.70733  0.80089  1.0000
  I   I5        1.0  0.38147  0.66479  0.24689  1.0000
  I   I6        1.0  0.43314  0.87074  0.99466  1.0000
  I   I7        1.0  0.34577  0.75050  0.33018  1.0000
  I   I8        1.0  0.73327  0.78389  0.81122  1.0000
  I   I9        1.0  0.14111  0.54881  0.70451  1.0000
  I   I10       1.0  0.46405  0.76699  0.43499  1.0000
  I   I11       1.0  0.27713  0.88136  0.94695  1.0000
  I   I12       1.0  0.31745  0.04086  0.73063  1.0000
  I   I13       1.0  0.78300  0.70118  0.71674  1.0000
  I   I14       1.0  0.13202  0.61745  0.76208  1.0000
  I   I15       1.0  0.87014  0.42018  0.86221  1.0000
  I   I16       1.0  0.49098  0.78583  0.31950  1.0000
  I   I17       1.0  0.34235  0.18798  0.06498  1.0000
  I   I18       1.0  0.54284  0.10038  0.56541  1.0000
  I   I19       1.0  0.10485  0.56453  0.86526  1.0000
  I   I20       1.0  0.35592  0.85299  0.98243  1.0000
  I   I21       1.0  0.35675  0.80233  0.26356  1.0000
  I   I22       1.0  0.26085  0.61584  0.69923  1.0000
  I   I23       1.0  0.12776  0.74838  0.17389  1.0000
  I   I24       1.0  0.29006  0.09770  0.47393  1.0000
  I   I25       1.0  0.77208  0.50937  0.15175  1.0000
  I   I26       1.0  0.29542  0.42641  0.10379  1.0000
  I   I27       1.0  0.54367  0.58293  0.96568  1.0000
  I   I28       1.0  0.55364  0.20636  0.85814  1.0000
  I   I29       1.0  0.08718  0.01520  0.03603  1.0000
  I   I30       1.0  0.13704  0.83831  0.17664  1.0000
  I   I31       1.0  0.57983  0.91250  0.06307  1.0000
  I   I32       1.0  0.01613  0.64814  0.18380  1.0000
  I   I33       1.0  0.31694  0.98063  0.38087  1.0000
  I   I34       1.0  0.55121  0.86729  0.09300  1.0000
  I   I35       1.0  0.25366  0.26172  0.53901  1.0000
  I   I36       1.0  0.81745  0.53843  0.10511  1.0000
  I   I37       1.0  0.06429  0.42328  0.67036  1.0000
  I   I38       1.0  0.97207  0.24372  0.65212  1.0000
  I   I39       1.0  0.09267  0.43179  0.75977  1.0000
  I   I40       1.0  0.75461  0.32106  0.21216  1.0000
  I   I41       1.0  0.99211  0.41545  0.16807  1.0000
  I   I42       1.0  0.53504  0.77722  0.34562  1.0000
  I   I43       1.0  0.36959  0.05954  0.11383  1.0000
  I   I44       1.0  0.74324  0.33605  0.32674  1.0000
  I   I45       1.0  0.63984  0.91493  0.15135  1.0000
  I   I46       1.0  0.18412  0.30838  0.23842  1.0000
  I   I47       1.0  0.01375  0.92252  0.93420  1.0000
  I   I48       1.0  0.00522  0.02931  0.67703  1.0000
  I   I49       1.0  0.02163  0.82131  0.51374  1.0000
  I   I50       1.0  0.45076  0.71291  0.66391  1.0000
  I   I51       1.0  0.41789  0.77231  0.62966  1.0000
  I   I52       1.0  0.53709  0.89895  0.00434  1.0000
  I   I53       1.0  0.41187  0.73584  0.78394  1.0000
  I   I54       1.0  0.36914  0.90671  0.03823  1.0000
  I   I55       1.0  0.75380  0.97328  0.12292  1.0000
  I   I56       1.0  0.32254  0.77967  0.23384  1.0000
  I   I57       1.0  0.16153  0.27420  0.28969  1.0000
  I   I58       1.0  0.51257  0.75074  0.44965  1.0000
  I   I59       1.0  0.34471  0.63236  0.43604  1.0000
  I   I60       1.0  0.97688  0.11894  0.13168  1.0000
  I   I61       1.0  0.77322  0.73334  0.58739  1.0000
  I   I62       1.0  0.84968  0.67814  0.70975  1.0000
  I   I63       1.0  0.13809  0.64677  0.83374  1.0000
  I   I64       1.0  0.24958  0.72424  0.45834  1.0000
  I   I65       1.0  0.78880  0.03653  0.45299  1.0000
  I   I66       1.0  0.33755  0.19344  0.17266  1.0000
  I   I67       1.0  0.80914  0.22386  0.95027  1.0000
  I   I68       1.0  0.08312  0.61645  0.92882  1.0000
  I   I69       1.0  0.95695  0.82372  0.69841  1.0000
  I   I70       1.0  0.23919  0.11475  0.41196  1.0000
  I   I71       1.0  0.23429  0.61978  0.80526  1.0000
  I   I72       1.0  0.05648  0.85700  0.94787  1.0000
  I   I73       1.0  0.50767  0.60279  0.04537  1.0000
  I   I74       1.0  0.05049  0.76563  0.80409  1.0000
  I   I75       1.0  0.04588  0.81757  0.80521  1.0000
  I   I76       1.0  0.85204  0.37082  0.85682  1.0000
  I   I77       1.0  0.81727  0.42643  0.89235  1.0000
  I   I78       1.0  0.75728  0.20554  0.04075  1.0000
  I   I79       1.0  0.59364  0.18910  0.80070  1.0000
  I   I80       1.0  0.70034  0.19758  0.98898  1.0000
  I   I81       1.0  0.48309  0.70364  0.97482  1.0000
  I   I82       1.0  0.75150  0.42804  0.65741  1.0000
  I   I83       1.0  0.11283  0.34312  0.45033  1.0000
  I   I84       1.0  0.27410  0.20833  0.49175  1.0000
  I   I85       1.0  0.02639  0.48411  0.83586  1.0000
  I   I86       1.0  0.38387  0.20163  0.15713  1.0000
  I   I87       1.0  0.94172  0.21811  0.73747  1.0000
  I   I88       1.0  0.48357  0.72083  0.36462  1.0000
  I   I89       1.0  0.84246  0.53503  0.23874  1.0000
  I   I90       1.0  0.00643  0.44157  0.06907  1.0000
  I   I91       1.0  0.92146  0.00633  0.39967  1.0000
  I   I92       1.0  0.41322  0.45167  0.25496  1.0000
  I   I93       1.0  0.80400  0.30215  0.30322  1.0000
  I   I94       1.0  0.01201  0.04060  0.58075  1.0000
  I   I95       1.0  0.87447  0.68385  0.07891  1.0000
  I   I96       1.0  0.62459  0.37199  0.88511  1.0000
  I   I97       1.0  0.16714  0.10094  0.38564  1.0000
  I   I98       1.0  0.65994  0.23177  0.90359  1.0000
  I   I99       1.0  0.46951  0.71917  0.58347  1.0000
  I   I100      1.0  0.17349  0.19115  0.04022  1.0000
  I   I101      1.0  0.26358  0.54766  0.92685  1.0000
  I   I102      1.0  0.27948  0.08584  0.82097  1.0000
  I   I103      1.0  0.80200  0.97111  0.13420  1.0000
  I   I104      1.0  0.44313  0.75512  0.13080  1.0000
  I   I105      1.0  0.17421  0.47848  0.65763  1.0000
  I   I106      1.0  0.76051  0.14636  0.10507  1.0000
  I   I107      1.0  0.52968  0.72612  0.36516  1.0000
  I   I108      1.0  0.81219  0.11152  0.04843  1.0000
  I   I109      1.0  0.82196  0.39773  0.99388  1.0000
  I   I110      1.0  0.74877  0.74820  0.68918  1.0000
  I   I111      1.0  0.13631  0.61446  0.90959  1.0000
  I   I112      1.0  0.52030  0.08376  0.48185  1.0000
  I   I113      1.0  0.75146  0.09248  0.44538  1.0000
  I   I114      1.0  0.21914  0.72711  0.57751  1.0000
  I   I115      1.0  0.34010  0.06733  0.35057  1.0000
  I   I116      1.0  0.31284  0.11435  0.37618  1.0000
  I   I117      1.0  0.54460  0.22955  0.09537  1.0000
  I   I118      1.0  0.67165  0.38334  0.83859  1.0000
  I   I119      1.0  0.29731  0.05983  0.41318  1.0000
  I   I120      1.0  0.09114  0.85663  0.03673  1.0000
  I   I121      1.0  0.56735  0.51878  0.17218  1.0000
  I   I122      1.0  0.73630  0.49255  0.18796  1.0000
  I   I123      1.0  0.34984  0.40696  0.15051  1.0000
  I   I124      1.0  0.12029  0.86225  0.26125  1.0000
  I   I125      1.0  0.39767  0.06016  0.62936  1.0000
  I   I126      1.0  0.06862  0.06017  0.11073  1.0000
  I   I127      1.0  0.59471  0.23756  0.76896  1.0000
  I   I128      1.0  0.16427  0.16775  0.91341  1.0000
  I   I129      1.0  0.01624  0.70047  0.16279  1.0000
  I   I130      1.0  0.22688  0.28662  0.45212  1.0000
  I   I131      1.0  0.73129  0.49076  0.61193  1.0000
  I   I132      1.0  0.56983  0.84103  0.19096  1.0000
  I   I133      1.0  0.99541  0.18570  0.65382  1.0000
  I   I134      1.0  0.34116  0.42412  0.55203  1.0000
  I   I135      1.0  0.34159  0.23949  0.10129  1.0000
  I   I136      1.0  0.76396  0.86347  0.44817  1.0000
  I   I137      1.0  0.46588  0.36497  0.97083  1.0000
  I   I138      1.0  0.21339  0.48262  0.18055  1.0000
  I   I139      1.0  0.91850  0.04682  0.28855  1.0000
  I   I140      1.0  0.46934  0.40355  0.24672  1.0000
  I   I141      1.0  0.43356  0.62399  0.55918  1.0000
  I   I142      1.0  0.96679  0.00510  0.65354  1.0000
  I   I143      1.0  0.15648  0.05584  0.34599  1.0000
  I   I144      1.0  0.62113  0.42500  0.84038  1.0000
  I   I145      1.0  0.72543  0.21104  0.91100  1.0000
  I   I146      1.0  0.45588  0.77400  0.68702  1.0000
  I   I147      1.0  0.10981  0.12471  0.34310  1.0000
  I   I148      1.0  0.43757  0.42501  0.01537  1.0000
  I   I149      1.0  0.33555  0.07940  0.79572  1.0000
  I   I150      1.0  0.42916  0.65859  0.18175  1.0000
  I   I151      1.0  0.47248  0.68515  0.05634  1.0000
  I   I152      1.0  0.37619  0.79988  0.36507  1.0000
  I   I153      1.0  0.20039  0.50671  0.72011  1.0000
  I   I154      1.0  0.03062  0.84422  0.37070  1.0000
  I   I155      1.0  0.32601  0.89589  0.92077  1.0000
  I   I156      1.0  0.99466  0.17386  0.17422  1.0000
  I   I157      1.0  0.91559  0.36806  0.85760  1.0000
  I   I158      1.0  0.18299  0.59981  0.85447  1.0000
  I   I159      1.0  0.72329  0.90806  0.62030  1.0000
  I   I160      1.0  0.56073  0.04378  0.53899  1.0000
  I   I161      1.0  0.14718  0.76315  0.55659  1.0000
  I   I162      1.0  0.56105  0.01642  0.62471  1.0000
  I   I163      1.0  0.83294  0.19790  0.85263  1.0000
  I   I164      1.0  0.59055  0.17683  0.14228  1.0000
  I   I165      1.0  0.38757  0.75175  0.29548  1.0000
  I   I166      1.0  0.71960  0.37418  0.81334  1.0000
  I   I167      1.0  0.30224  0.59681  0.78278  1.0000
  I   I168      1.0  0.76059  0.24218  0.56606  1.0000
  I   I169      1.0  0.67456  0.55637  0.12657  1.0000
  I   I170      1.0  0.67188  0.54704  0.21820  1.0000
  I   I171      1.0  0.55203  0.61956  0.05121  1.0000
  I   I172      1.0  0.37270  0.02290  0.64642  1.0000
  I   I173      1.0  0.12896  0.02339  0.07499  1.0000
  I   I174      1.0  0.09724  0.82705  0.25892  1.0000
  I   I175      1.0  0.72039  0.24361  0.09219  1.0000
  I   I176      1.0  0.45380  0.76305  0.01010  1.0000
  I   I177      1.0  0.31501  0.98258  0.48839  1.0000
  I   I178      1.0  0.73165  0.45038  0.73553  1.0000
  I   I179      1.0  0.16621  0.32680  0.48823  1.0000
  I   I180      1.0  0.22465  0.23845  0.49110  1.0000
  I   I181      1.0  0.05291  0.48044  0.76607  1.0000
  I   I182      1.0  0.78376  0.92473  0.13012  1.0000
  I   I183      1.0  0.59890  0.95640  0.28798  1.0000
  I   I184      1.0  0.22400  0.57637  0.00826  1.0000
  I   I185      1.0  0.17797  0.52893  0.09935  1.0000
  I   I186      1.0  0.75715  0.86964  0.34151  1.0000
  I   I187      1.0  0.44068  0.41798  0.35035  1.0000
  I   I188      1.0  0.77389  0.27595  0.27810  1.0000
  I   I189      1.0  0.62356  0.90342  0.26148  1.0000
  I   I190      1.0  0.84218  0.71118  0.97749  1.0000
  I   I191      1.0  0.10553  0.24278  0.20757  1.0000
  I   I192      1.0  0.10550  0.08583  0.38580  1.0000
  I   I193      1.0  0.03672  0.12168  0.10330  1.0000
  I   I194      1.0  0.05369  0.29119  0.19924  1.0000
  I   I195      1.0  0.14906  0.07309  0.44848  1.0000
  I   I196      1.0  0.22085  0.14041  0.99933  1.0000
  I   I197      1.0  0.36188  0.05883  0.00129  1.0000
  I   I198      1.0  0.44094  0.60872  0.21607  1.0000
  I   I199      1.0  0.42442  0.73648  0.04490  1.0000
  I   I200      1.0  0.78225  0.80657  0.78341  1.0000
  I   I201      1.0  0.16451  0.50543  0.79895  1.0000
  I   I202      1.0  0.35749  0.68778  0.42471  1.0000
  I   I203      1.0  0.00076  0.80111  0.76110  1.0000
  I   I204      1.0  0.76376  0.09879  0.07176  1.0000
  I   I205      1.0  0.74873  0.70477  0.63551  1.0000
  I   I206      1.0  0.18299  0.21201  0.84637  1.0000
  I   I207      1.0  0.88188  0.38823  0.77747  1.0000
  I   I208      1.0  0.31063  0.68404  0.42638  1.0000
  I   I209      1.0  0.19606  0.77610  0.52649  1.0000
  I   I210      1.0  0.37434  0.98184  0.40198  1.0000
  I   I211      1.0  0.24716  0.10073  0.51713  1.0000
  I   I212      1.0  0.09835  0.61783  0.83158  1.0000
  I   I213      1.0  0.02009  0.82955  0.71145  1.0000
  I   I214      1.0  0.65375  0.38410  0.74953  1.0000
  I   I215      1.0  0.26459  0.56823  0.74818  1.0000
  I   I216      1.0  0.47339  0.56184  0.55757  1.0000
  I   I217      1.0  0.72648  0.50622  0.09719  1.0000
  I   I218      1.0  0.33913  0.37335  0.06619  1.0000
  I   I219      1.0  0.57267  0.46626  0.13595  1.0000
  I   I220      1.0  0.81274  0.37421  0.91417  1.0000
  I   I221      1.0  0.04319  0.07379  0.02241  1.0000
  I   I222      1.0  0.36552  0.06274  0.55905  1.0000
  I   I223      1.0  0.69123  0.25400  0.99709  1.0000
  I   I224      1.0  0.41910  0.72872  0.12865  1.0000
  I   I225      1.0  0.60603  0.22418  0.87265  1.0000
  I   I226      1.0  0.68994  0.47358  0.67321  1.0000
  I   I227      1.0  0.52684  0.82690  0.13326  1.0000
  I   I228      1.0  0.23566  0.19981  0.41661  1.0000
  I   I229      1.0  0.17783  0.76852  0.63376  1.0000
  I   I230      1.0  0.27433  0.46805  0.56856  1.0000
  I   I231      1.0  0.93980  0.21088  0.63129  1.0000
  I   I232      1.0  0.13274  0.22224  0.89046  1.0000
  I   I233      1.0  0.80969  0.57764  0.33262  1.0000
  I   I234      1.0  0.05134  0.39943  0.13915  1.0000
  I   I235      1.0  0.04757  0.88036  0.35451  1.0000
  I   I236      1.0  0.44987  0.56779  0.45943  1.0000
  I   I237      1.0  0.94643  0.05145  0.37856  1.0000
  I   I238      1.0  0.19133  0.25622  0.21589  1.0000
  I   I239      1.0  0.71286  0.36954  0.71211  1.0000
  I   I240      1.0  0.97860  0.09477  0.60241  1.0000
  I   I241      1.0  0.71056  0.17010  0.87685  1.0000
  I   I242      1.0  0.48347  0.75898  0.60245  1.0000
  I   I243      1.0  0.82207  0.73967  0.06688  1.0000
  I   I244      1.0  0.24442  0.51145  0.97830  1.0000
  I   I245      1.0  0.34800  0.77269  0.80896  1.0000
  I   I246      1.0  0.39154  0.63966  0.15109  1.0000
  I   I247      1.0  0.81782  0.94705  0.04594  1.0000
  I   I248      1.0  0.36797  0.74939  0.18957  1.0000
  I   I249      1.0  0.13286  0.50485  0.70392  1.0000
  I   I250      1.0  0.33840  0.68084  0.51941  1.0000
  I   I251      1.0  0.31692  0.83113  0.95964  1.0000
  I   I252      1.0  0.94253  0.17019  0.15231  1.0000
  I   I253      1.0  0.80471  0.73013  0.68240  1.0000
  I   I254      1.0  0.16591  0.22567  0.95477  1.0000
  I   I255      1.0  0.71727  0.95548  0.57587  1.0000
  I   I256      1.0  0.75776  0.06291  0.54331  1.0000
  I   I257      1.0  0.98363  0.47036  0.79531  1.0000
  I   I258      1.0  0.53292  0.07406  0.66501  1.0000
  I   I259      1.0  0.34719  0.07482  0.45881  1.0000
  I   I260      1.0  0.57906  0.23508  0.15651  1.0000
  I   I261      1.0  0.33895  0.72382  0.22687  1.0000
  I   I262      1.0  0.60156  0.39047  0.79582  1.0000
  I   I263      1.0  0.16984  0.76354  0.21801  1.0000
  I   I264      1.0  0.23234  0.18133  0.53119  1.0000
  I   I265      1.0  0.72096  0.56133  0.12545  1.0000
  I   I266      1.0  0.00361  0.76957  0.67965  1.0000
  I   I267      1.0  0.52502  0.52813  0.09270  1.0000
  I   I268      1.0  0.58580  0.15906  0.93268  1.0000
  I   I269      1.0  0.06876  0.10298  0.99054  1.0000
  I   I270      1.0  0.55213  0.15399  0.87510  1.0000
  I   I271      1.0  0.68414  0.22467  0.07563  1.0000
  I   I272      1.0  0.95646  0.70543  0.21485  1.0000
  I   I273      1.0  0.65335  0.17417  0.80500  1.0000
  I   I274      1.0  0.76600  0.59137  0.25460  1.0000
  I   I275      1.0  0.51354  0.88001  0.18557  1.0000
  I   I276      1.0  0.28621  0.24938  0.45485  1.0000
  I   I277      1.0  0.72124  0.50047  0.70827  1.0000
  I   I278      1.0  0.28302  0.41171  0.57253  1.0000
  I   I279      1.0  0.67251  0.89892  0.28929  1.0000
  I   I280      1.0  0.48821  0.40405  0.98560  1.0000
  I   I281      1.0  0.81819  0.57248  0.17633  1.0000
  I   I282      1.0  0.72050  0.92829  0.36932  1.0000
  I   I283      1.0  0.00058  0.82730  0.40992  1.0000
  I   I284      1.0  0.73651  0.20967  0.50711  1.0000
  I   I285      1.0  0.64657  0.95096  0.33815  1.0000
  I   I286      1.0  0.12754  0.28538  0.19978  1.0000
  I   I287      1.0  0.03485  0.92873  0.84212  1.0000
  I   I288      1.0  0.94546  0.06638  0.66876  1.0000
  I   I289      1.0  0.03816  0.87036  0.45826  1.0000
  I   I290      1.0  0.08227  0.29420  0.27904  1.0000
  I   I291      1.0  0.51525  0.67959  0.64302  1.0000
  I   I292      1.0  0.45818  0.40557  0.88959  1.0000
  I   I293      1.0  0.38422  0.74998  0.89135  1.0000
  I   I294      1.0  0.38160  0.92273  0.93945  1.0000
  I   I295      1.0  0.82556  0.92434  0.19437  1.0000
  I   I296      1.0  0.71847  0.83966  0.77799  1.0000
  I   I297      1.0  0.16467  0.53893  0.60056  1.0000
  I   I298      1.0  0.32861  0.04474  0.07469  1.0000
  I   I299      1.0  0.27153  0.65876  0.42079  1.0000
  I   I300      1.0  0.40990  0.58804  0.54599  1.0000
  I   I301      1.0  0.68584  0.95141  0.51050  1.0000
  I   I302      1.0  0.82096  0.69026  0.60503  1.0000
  I   I303      1.0  0.49571  0.69996  0.46564  1.0000
  I   I304      1.0  0.51233  0.04058  0.55822  1.0000
  I   I305      1.0  0.25774  0.70862  0.35303  1.0000
  I   I306      1.0  0.78031  0.97655  0.22272  1.0000
  I   I307      1.0  0.79491  0.25474  0.84578  1.0000
  I   I308      1.0  0.15261  0.57127  0.83239  1.0000
  I   I309      1.0  0.32054  0.81545  0.36037  1.0000
  I   I310      1.0  0.06704  0.80760  0.45709  1.0000
  I   I311      1.0  0.13174  0.75505  0.28524  1.0000
  I   I312      1.0  0.11406  0.83095  0.94083  1.0000
  I   I313      1.0  0.52516  0.49134  0.17935  1.0000
  I   I314      1.0  0.72641  0.54828  0.22734  1.0000
  I   I315      1.0  0.32056  0.37000  0.16284  1.0000
  I   I316      1.0  0.42326  0.00539  0.56711  1.0000
  I   I317      1.0  0.61006  0.13427  0.83784  1.0000
  I   I318      1.0  0.11165  0.04754  0.00048  1.0000
  I   I319      1.0  0.34986  0.94266  0.44435  1.0000
  I   I320      1.0  0.20996  0.18037  0.93460  1.0000
  I   I321      1.0  0.49635  0.71536  0.06886  1.0000
  I   I322      1.0  0.87974  0.51456  0.16063  1.0000
  I   I323      1.0  0.16304  0.32303  0.37286  1.0000
  I   I324      1.0  0.27074  0.15579  0.45483  1.0000
  I   I325      1.0  0.03820  0.43139  0.77434  1.0000
  I   I326      1.0  0.76971  0.99701  0.02208  1.0000
  I   I327      1.0  0.69796  0.89451  0.20820  1.0000
  I   I328      1.0  0.49280  0.80453  0.41297  1.0000
  I   I329      1.0  0.14739  0.50494  0.13332  1.0000
  I   I330      1.0  0.00845  0.38576  0.07636  1.0000
  I   I331      1.0  0.64863  0.94421  0.23085  1.0000
  I   I332      1.0  0.40322  0.00645  0.05735  1.0000
  I   I333      1.0  0.79807  0.61436  0.26158  1.0000
  I   I334      1.0  0.00990  0.99048  0.57723  1.0000
  I   I335      1.0  0.88685  0.72479  0.02272  1.0000
  I   I336      1.0  0.70554  0.33162  0.77761  1.0000
  I   I337      1.0  0.09551  0.82178  0.36737  1.0000
  I   I338      1.0  0.07920  0.31562  0.16472  1.0000
  I   I339      1.0  0.53261  0.70189  0.58308  1.0000
  I   I340      1.0  0.56649  0.92614  0.95039  1.0000
  I   I341      1.0  0.32710  0.03112  0.83470  1.0000
  I   I342      1.0  0.39998  0.92814  0.03364  1.0000
  I   I343      1.0  0.48996  0.69730  0.16107  1.0000
  I   I344      1.0  0.74576  0.82591  0.87043  1.0000
  I   I345      1.0  0.12849  0.51627  0.59770  1.0000
  I   I346      1.0  0.25732  0.05237  0.44583  1.0000
  I   I347      1.0  0.38651  0.63642  0.47595  1.0000
  I   I348      1.0  0.98728  0.16035  0.07450  1.0000
  I   I349      1.0  0.72261  0.89794  0.51039  1.0000
  I   I350      1.0  0.81297  0.65535  0.67749  1.0000
  I   I351      1.0  0.16174  0.15669  0.00939  1.0000
  I   I352      1.0  0.49577  0.09304  0.59506  1.0000
  I   I353      1.0  0.72019  0.05925  0.46573  1.0000
  I   I354      1.0  0.76641  0.95247  0.02557  1.0000
  I   I355      1.0  0.85500  0.23442  0.88736  1.0000
  I   I356      1.0  0.60734  0.20955  0.05675  1.0000
  I   I357      1.0  0.06786  0.78387  0.71156  1.0000
  I   I358      1.0  0.70223  0.26598  0.56782  1.0000
  I   I359      1.0  0.17352  0.69681  0.24240  1.0000
  I   I360      1.0  0.08484  0.88496  0.90203  1.0000
  I   I361      1.0  0.50001  0.64288  0.96730  1.0000
  I   I362      1.0  0.67466  0.59893  0.19460  1.0000
  I   I363      1.0  0.00225  0.80873  0.62014  1.0000
  I   I364      1.0  0.14563  0.81361  0.30544  1.0000
  I   I365      1.0  0.87253  0.38577  0.93735  1.0000
  I   I366      1.0  0.09905  0.08454  0.08068  1.0000
  I   I367      1.0  0.34599  0.00555  0.48076  1.0000
  I   I368      1.0  0.59481  0.86265  0.99607  1.0000
  I   I369      1.0  0.01048  0.68015  0.27505  1.0000
  I   I370      1.0  0.84461  0.49303  0.18390  1.0000
  I   I371      1.0  0.15586  0.28533  0.45408  1.0000
  I   I372      1.0  0.69861  0.27284  0.48157  1.0000
  I   I373      1.0  0.01816  0.46791  0.70223  1.0000
  I   I374      1.0  0.29071  0.44209  0.49052  1.0000
  I   I375      1.0  0.66616  0.86550  0.21097  1.0000
  I   I376      1.0  0.20485  0.55490  0.91321  1.0000
  I   I377      1.0  0.19613  0.47697  0.06890  1.0000
  I   I378      1.0  0.70418  0.89116  0.40782  1.0000
  I   I379      1.0  0.89079  0.06198  0.39271  1.0000
  I   I380      1.0  0.41882  0.39135  0.26357  1.0000
  I   I381      1.0  0.75607  0.14712  0.99497  1.0000
  I   I382      1.0  0.96215  0.04883  0.57236  1.0000
  I   I383      1.0  0.13266  0.33103  0.23783  1.0000
  I   I384      1.0  0.05025  0.94776  0.92819  1.0000
