data_image0
_chemical_formula_structural       Ti96I384
_chemical_formula_sum              "Ti96 I384"
_cell_length_a       67.0065
_cell_length_b       67.0017
_cell_length_c       32.769
_cell_angle_alpha    88.7757
_cell_angle_beta     88.7757
_cell_angle_gamma    62.1586

_space_group_name_H-M_alt    "P 1"
_space_group_IT_number       1

loop_
  _space_group_symop_operation_xyz
  'x, y, z'

loop_
  _atom_site_type_symbol
  _atom_site_label
  _atom_site_symmetry_multiplicity
  _atom_site_fract_x
  _atom_site_fract_y
  _atom_site_fract_z
  _atom_site_occupancy
  Ti  Ti1       1.0  0.10570  0.76784  0.13895  1.0000
  Ti  Ti2       1.0  0.58515  0.99870  0.02130  1.0000
  Ti  Ti3       1.0  0.68245  0.94323  0.44287  1.0000
  Ti  Ti4       1.0  0.91564  0.07123  0.16400  1.0000
  Ti  Ti5       1.0  0.75028  0.71283  0.37780  1.0000
  Ti  Ti6       1.0  0.02459  0.58345  0.79937  1.0000
  Ti  Ti7       1.0  0.84710  0.30350  0.54272  1.0000
  Ti  Ti8       1.0  0.27823  0.06182  0.45029  1.0000
  Ti  Ti9       1.0  0.27700  0.84997  0.04003  1.0000
  Ti  Ti10      1.0  0.84484  0.96688  0.17988  1.0000
  Ti  Ti11      1.0  0.06876  0.16432  0.62078  1.0000
  Ti  Ti12      1.0  0.13410  0.58550  0.46880  1.0000
  Ti  Ti13      1.0  0.16592  0.07749  0.02934  1.0000
  Ti  Ti14      1.0  0.02561  0.09962  0.45581  1.0000
  Ti  Ti15      1.0  0.64895  0.07210  0.61211  1.0000
  Ti  Ti16      1.0  0.79457  0.01880  0.27376  1.0000
  Ti  Ti17      1.0  0.30646  0.01884  0.87893  1.0000
  Ti  Ti18      1.0  0.99385  0.69358  0.16528  1.0000
  Ti  Ti19      1.0  0.52198  0.46155  0.95962  1.0000
  Ti  Ti20      1.0  0.23865  0.93547  0.61198  1.0000
  Ti  Ti21      1.0  0.32209  0.02535  0.54778  1.0000
  Ti  Ti22      1.0  0.73434  0.73944  0.67394  1.0000
  Ti  Ti23      1.0  0.52285  0.02628  0.69782  1.0000
  Ti  Ti24      1.0  0.33967  0.73790  0.79618  1.0000
  Ti  Ti25      1.0  0.57581  0.87324  0.68260  1.0000
  Ti  Ti26      1.0  0.34309  0.85192  0.36421  1.0000
  Ti  Ti27      1.0  0.78138  0.06213  0.56865  1.0000
  Ti  Ti28      1.0  0.66058  0.51253  0.67633  1.0000
  Ti  Ti29      1.0  0.92229  0.93610  0.97806  1.0000
  Ti  Ti30      1.0  0.37494  0.11090  0.20838  1.0000
  Ti  Ti31      1.0  0.09802  0.76580  0.74290  1.0000
  Ti  Ti32      1.0  0.82942  0.37216  0.11618  1.0000
  Ti  Ti33      1.0  0.11171  0.87608  0.27493  1.0000
  Ti  Ti34      1.0  0.43015  0.48444  0.86886  1.0000
  Ti  Ti35      1.0  0.64489  0.64769  0.96934  1.0000
  Ti  Ti36      1.0  0.77493  0.01789  0.88087  1.0000
  Ti  Ti37      1.0  0.12950  0.47434  0.36124  1.0000
  Ti  Ti38      1.0  0.57994  0.32147  0.04909  1.0000
  Ti  Ti39      1.0  0.92272  0.54992  0.20022  1.0000
  Ti  Ti40      1.0  0.26179  0.35790  0.00461  1.0000
  Ti  Ti41      1.0  0.44252  0.71492  0.60553  1.0000
  Ti  Ti42      1.0  0.90645  0.45320  0.33383  1.0000
  Ti  Ti43      1.0  0.57999  0.17784  0.43081  1.0000
  Ti  Ti44      1.0  0.86190  0.45104  0.59434  1.0000
  Ti  Ti45      1.0  0.37995  0.58774  0.69798  1.0000
  Ti  Ti46      1.0  0.52849  0.44389  0.41236  1.0000
  Ti  Ti47      1.0  0.22086  0.51945  0.15938  1.0000
  Ti  Ti48      1.0  0.62087  0.21471  0.70581  1.0000
  Ti  Ti49      1.0  0.82371  0.58076  0.42227  1.0000
  Ti  Ti50      1.0  0.00660  0.31156  0.79199  1.0000
  Ti  Ti51      1.0  0.62283  0.00700  0.91563  1.0000
  Ti  Ti52      1.0  0.92919  0.11148  0.25688  1.0000
  Ti  Ti53      1.0  0.43659  0.67097  0.00298  1.0000
  Ti  Ti54      1.0  0.06808  0.52473  0.85537  1.0000
  Ti  Ti55      1.0  0.85050  0.27233  0.41590  1.0000
  Ti  Ti56      1.0  0.26016  0.48231  0.73456  1.0000
  Ti  Ti57      1.0  0.29028  0.90152  0.12716  1.0000
  Ti  Ti58      1.0  0.61162  0.20118  0.34342  1.0000
  Ti  Ti59      1.0  0.17167  0.30114  0.96673  1.0000
  Ti  Ti60      1.0  0.19247  0.58505  0.54189  1.0000
  Ti  Ti61      1.0  0.65168  0.02277  0.63239  1.0000
  Ti  Ti62      1.0  0.14940  0.02931  0.99273  1.0000
  Ti  Ti63      1.0  0.95059  0.14125  0.45438  1.0000
  Ti  Ti64      1.0  0.97762  0.75254  0.15371  1.0000
  Ti  Ti65      1.0  0.90687  0.64167  0.70294  1.0000
  Ti  Ti66      1.0  0.55939  0.24784  0.10077  1.0000
  Ti  Ti67      1.0  0.57440  0.44138  0.03618  1.0000
  Ti  Ti68      1.0  0.98617  0.50455  0.98360  1.0000
  Ti  Ti69      1.0  0.45307  0.85119  0.89704  1.0000
  Ti  Ti70      1.0  0.63152  0.70557  0.64670  1.0000
  Ti  Ti71      1.0  0.53334  0.99779  0.60765  1.0000
  Ti  Ti72      1.0  0.02713  0.15078  0.20011  1.0000
  Ti  Ti73      1.0  0.82038  0.09163  0.62173  1.0000
  Ti  Ti74      1.0  0.61492  0.85771  0.77179  1.0000
  Ti  Ti75      1.0  0.38525  0.82256  0.32359  1.0000
  Ti  Ti76      1.0  0.35350  0.05451  0.20236  1.0000
  Ti  Ti77      1.0  0.66031  0.50296  0.57110  1.0000
  Ti  Ti78      1.0  0.94503  0.86272  0.03801  1.0000
  Ti  Ti79      1.0  0.65910  0.31913  0.58019  1.0000
  Ti  Ti80      1.0  0.71357  0.22276  0.18882  1.0000
  Ti  Ti81      1.0  0.83653  0.30806  0.04826  1.0000
  Ti  Ti82      1.0  0.43651  0.44910  0.78049  1.0000
  Ti  Ti83      1.0  0.64982  0.58392  0.02089  1.0000
  Ti  Ti84      1.0  0.77031  0.96792  0.90573  1.0000
  Ti  Ti85      1.0  0.12929  0.44105  0.47596  1.0000
  Ti  Ti86      1.0  0.59294  0.27170  0.11799  1.0000
  Ti  Ti87      1.0  0.86826  0.60585  0.15361  1.0000
  Ti  Ti88      1.0  0.55739  0.61887  0.31148  1.0000
  Ti  Ti89      1.0  0.48920  0.67653  0.62860  1.0000
  Ti  Ti90      1.0  0.90258  0.44304  0.24281  1.0000
  Ti  Ti91      1.0  0.30601  0.58720  0.70732  1.0000
  Ti  Ti92      1.0  0.15450  0.66520  0.81948  1.0000
  Ti  Ti93      1.0  0.92162  0.43508  0.60622  1.0000
  Ti  Ti94      1.0  0.63339  0.23673  0.79595  1.0000
  Ti  Ti95      1.0  0.53392  0.39936  0.33741  1.0000
  Ti  Ti96      1.0  0.27727  0.46859  0.15539  1.0000
  I   I1        1.0  0.30709  0.45378  0.08987  1.0000
  I   I2        1.0  0.58242  0.96421  0.99395  1.0000
  I   I3        1.0  0.78673  0.61032  0.39530  1.0000
  I   I4        1.0  0.44879  0.70248  0.99670  1.0000
  I   I5        1.0  0.02760  0.55584  0.88342  1.0000
  I   I6        1.0  0.09441  0.52322  0.92025  1.0000
  I   I7        1.0  0.24847  0.10465  0.45005  1.0000
  I   I8        1.0  0.24374  0.45852  0.70712  1.0000
  I   I9        1.0  0.25666  0.88356  0.08594  1.0000
  I   I10       1.0  0.80582  0.04291  0.32098  1.0000
  I   I11       1.0  0.07348  0.16116  0.54318  1.0000
  I   I12       1.0  0.75563  0.67591  0.41731  1.0000
  I   I13       1.0  0.14274  0.07444  0.09171  1.0000
  I   I14       1.0  0.98943  0.13327  0.50225  1.0000
  I   I15       1.0  0.62273  0.11328  0.64340  1.0000
  I   I16       1.0  0.77245  0.01772  0.33765  1.0000
  I   I17       1.0  0.51627  0.25579  0.08004  1.0000
  I   I18       1.0  0.93467  0.76309  0.16228  1.0000
  I   I19       1.0  0.25157  0.89372  0.59630  1.0000
  I   I20       1.0  0.03632  0.15405  0.62122  1.0000
  I   I21       1.0  0.30850  0.02890  0.63035  1.0000
  I   I22       1.0  0.53973  0.98601  0.74250  1.0000
  I   I23       1.0  0.51995  0.05165  0.62630  1.0000
  I   I24       1.0  0.64804  0.70189  0.57451  1.0000
  I   I25       1.0  0.64586  0.82379  0.81374  1.0000
  I   I26       1.0  0.41207  0.77697  0.34620  1.0000
  I   I27       1.0  0.85989  0.08899  0.61686  1.0000
  I   I28       1.0  0.67703  0.46644  0.53064  1.0000
  I   I29       1.0  0.94671  0.90461  0.04456  1.0000
  I   I30       1.0  0.37872  0.11674  0.28449  1.0000
  I   I31       1.0  0.73103  0.18580  0.24182  1.0000
  I   I32       1.0  0.86189  0.28656  0.98524  1.0000
  I   I33       1.0  0.67368  0.34066  0.53096  1.0000
  I   I34       1.0  0.64636  0.54588  0.01558  1.0000
  I   I35       1.0  0.80989  0.02536  0.89274  1.0000
  I   I36       1.0  0.39230  0.50778  0.91155  1.0000
  I   I37       1.0  0.15513  0.39828  0.44855  1.0000
  I   I38       1.0  0.82851  0.61134  0.17712  1.0000
  I   I39       1.0  0.09454  0.49011  0.41838  1.0000
  I   I40       1.0  0.48195  0.69032  0.70118  1.0000
  I   I41       1.0  0.88974  0.43260  0.17411  1.0000
  I   I42       1.0  0.29422  0.36024  0.97022  1.0000
  I   I43       1.0  0.62900  0.21726  0.39413  1.0000
  I   I44       1.0  0.88943  0.41976  0.64575  1.0000
  I   I45       1.0  0.34287  0.58272  0.74310  1.0000
  I   I46       1.0  0.56894  0.36314  0.36133  1.0000
  I   I47       1.0  0.21175  0.55885  0.19365  1.0000
  I   I48       1.0  0.58070  0.21423  0.71431  1.0000
  I   I49       1.0  0.83945  0.54078  0.38869  1.0000
  I   I50       1.0  0.54301  0.02932  0.03765  1.0000
  I   I51       1.0  0.58376  0.02986  0.96386  1.0000
  I   I52       1.0  0.94959  0.02778  0.14632  1.0000
  I   I53       1.0  0.42918  0.66475  0.93125  1.0000
  I   I54       1.0  0.10458  0.51192  0.81231  1.0000
  I   I55       1.0  0.81640  0.34750  0.53548  1.0000
  I   I56       1.0  0.25156  0.04468  0.46260  1.0000
  I   I57       1.0  0.24152  0.84147  0.02528  1.0000
  I   I58       1.0  0.85978  0.98559  0.11864  1.0000
  I   I59       1.0  0.13520  0.33628  0.98597  1.0000
  I   I60       1.0  0.22462  0.58012  0.49204  1.0000
  I   I61       1.0  0.10728  0.04582  0.99234  1.0000
  I   I62       1.0  0.14826  0.11993  0.02101  1.0000
  I   I63       1.0  0.04334  0.08298  0.38179  1.0000
  I   I64       1.0  0.81524  0.97180  0.25940  1.0000
  I   I65       1.0  0.87775  0.63272  0.66264  1.0000
  I   I66       1.0  0.56099  0.21896  0.15612  1.0000
  I   I67       1.0  0.52401  0.47323  0.03372  1.0000
  I   I68       1.0  0.22873  0.95113  0.68904  1.0000
  I   I69       1.0  0.44791  0.81731  0.91523  1.0000
  I   I70       1.0  0.60164  0.68818  0.66370  1.0000
  I   I71       1.0  0.49127  0.06407  0.72708  1.0000
  I   I72       1.0  0.99705  0.19125  0.18047  1.0000
  I   I73       1.0  0.79881  0.13197  0.64274  1.0000
  I   I74       1.0  0.32682  0.82920  0.40380  1.0000
  I   I75       1.0  0.38808  0.83121  0.40830  1.0000
  I   I76       1.0  0.65538  0.47772  0.65426  1.0000
  I   I77       1.0  0.61878  0.51554  0.56387  1.0000
  I   I78       1.0  0.90668  0.87218  0.08036  1.0000
  I   I79       1.0  0.09382  0.91187  0.31429  1.0000
  I   I80       1.0  0.13065  0.75496  0.79195  1.0000
  I   I81       1.0  0.79997  0.31616  0.01195  1.0000
  I   I82       1.0  0.47215  0.42693  0.72525  1.0000
  I   I83       1.0  0.67873  0.64155  0.92040  1.0000
  I   I84       1.0  0.74490  0.97143  0.96383  1.0000
  I   I85       1.0  0.09484  0.43453  0.47583  1.0000
  I   I86       1.0  0.55801  0.29211  0.04965  1.0000
  I   I87       1.0  0.96055  0.51651  0.17284  1.0000
  I   I88       1.0  0.23245  0.40192  0.00405  1.0000
  I   I89       1.0  0.50916  0.62773  0.63575  1.0000
  I   I90       1.0  0.93994  0.40190  0.23347  1.0000
  I   I91       1.0  0.29025  0.58347  0.78574  1.0000
  I   I92       1.0  0.16210  0.62507  0.84268  1.0000
  I   I93       1.0  0.83929  0.47119  0.66341  1.0000
  I   I94       1.0  0.63018  0.20287  0.62519  1.0000
  I   I95       1.0  0.56452  0.42602  0.46091  1.0000
  I   I96       1.0  0.29493  0.43723  0.20475  1.0000
  I   I97       1.0  0.65685  0.95305  0.37960  1.0000
  I   I98       1.0  0.08263  0.80108  0.08972  1.0000
  I   I99       1.0  0.62493  0.97428  0.96870  1.0000
  I   I100      1.0  0.94237  0.06703  0.23672  1.0000
  I   I101      1.0  0.91307  0.11064  0.33605  1.0000
  I   I102      1.0  0.74377  0.71427  0.30188  1.0000
  I   I103      1.0  0.89058  0.24226  0.41646  1.0000
  I   I104      1.0  0.82916  0.30059  0.61460  1.0000
  I   I105      1.0  0.32186  0.90197  0.16213  1.0000
  I   I106      1.0  0.12163  0.55386  0.50585  1.0000
  I   I107      1.0  0.87493  0.92792  0.17147  1.0000
  I   I108      1.0  0.14803  0.56205  0.39845  1.0000
  I   I109      1.0  0.65558  0.07815  0.53317  1.0000
  I   I110      1.0  0.14151  0.07440  0.96632  1.0000
  I   I111      1.0  0.94280  0.11047  0.49386  1.0000
  I   I112      1.0  0.99709  0.71272  0.09265  1.0000
  I   I113      1.0  0.91534  0.67529  0.70781  1.0000
  I   I114      1.0  0.32933  0.03826  0.84249  1.0000
  I   I115      1.0  0.56633  0.45634  0.95551  1.0000
  I   I116      1.0  0.53924  0.42330  0.90086  1.0000
  I   I117      1.0  0.99716  0.53667  0.97905  1.0000
  I   I118      1.0  0.72349  0.70590  0.68469  1.0000
  I   I119      1.0  0.67182  0.68159  0.67040  1.0000
  I   I120      1.0  0.02922  0.11972  0.15291  1.0000
  I   I121      1.0  0.82771  0.05548  0.56920  1.0000
  I   I122      1.0  0.57043  0.87837  0.60278  1.0000
  I   I123      1.0  0.37049  0.86813  0.29963  1.0000
  I   I124      1.0  0.38112  0.06629  0.24626  1.0000
  I   I125      1.0  0.69520  0.49294  0.73511  1.0000
  I   I126      1.0  0.90770  0.90474  0.96788  1.0000
  I   I127      1.0  0.11319  0.90204  0.21261  1.0000
  I   I128      1.0  0.70313  0.25954  0.22592  1.0000
  I   I129      1.0  0.85031  0.26924  0.08839  1.0000
  I   I130      1.0  0.77116  0.00795  0.95982  1.0000
  I   I131      1.0  0.41010  0.49502  0.78779  1.0000
  I   I132      1.0  0.69134  0.56329  0.03455  1.0000
  I   I133      1.0  0.94830  0.57122  0.21890  1.0000
  I   I134      1.0  0.60361  0.34225  0.05746  1.0000
  I   I135      1.0  0.62619  0.27055  0.07042  1.0000
  I   I136      1.0  0.90513  0.43344  0.40399  1.0000
  I   I137      1.0  0.56405  0.58461  0.35612  1.0000
  I   I138      1.0  0.40500  0.71947  0.56747  1.0000
  I   I139      1.0  0.39184  0.54849  0.65246  1.0000
  I   I140      1.0  0.19198  0.66510  0.83924  1.0000
  I   I141      1.0  0.89314  0.43620  0.52902  1.0000
  I   I142      1.0  0.60533  0.25330  0.85432  1.0000
  I   I143      1.0  0.50253  0.38493  0.33688  1.0000
  I   I144      1.0  0.17864  0.54051  0.12532  1.0000
  I   I145      1.0  0.08172  0.77911  0.21191  1.0000
  I   I146      1.0  0.59939  0.99679  0.10782  1.0000
  I   I147      1.0  0.68033  0.97901  0.48043  1.0000
  I   I148      1.0  0.92118  0.10585  0.16370  1.0000
  I   I149      1.0  0.78959  0.71067  0.37248  1.0000
  I   I150      1.0  0.05641  0.58815  0.76075  1.0000
  I   I151      1.0  0.83170  0.25047  0.39422  1.0000
  I   I152      1.0  0.27793  0.06684  0.36999  1.0000
  I   I153      1.0  0.26078  0.92265  0.17725  1.0000
  I   I154      1.0  0.61839  0.14819  0.45691  1.0000
  I   I155      1.0  0.09556  0.13931  0.67785  1.0000
  I   I156      1.0  0.22117  0.55591  0.59589  1.0000
  I   I157      1.0  0.67656  0.06340  0.67133  1.0000
  I   I158      1.0  0.92969  0.18299  0.48710  1.0000
  I   I159      1.0  0.69080  0.99690  0.66403  1.0000
  I   I160      1.0  0.02465  0.71278  0.17326  1.0000
  I   I161      1.0  0.30025  0.02304  0.96412  1.0000
  I   I162      1.0  0.97840  0.77858  0.20900  1.0000
  I   I163      1.0  0.49062  0.44861  0.97560  1.0000
  I   I164      1.0  0.98275  0.48451  0.91885  1.0000
  I   I165      1.0  0.32460  0.98477  0.57733  1.0000
  I   I166      1.0  0.73735  0.77188  0.71371  1.0000
  I   I167      1.0  0.49216  0.01422  0.65183  1.0000
  I   I168      1.0  0.29892  0.75609  0.82971  1.0000
  I   I169      1.0  0.58892  0.87744  0.83631  1.0000
  I   I170      1.0  0.58799  0.84041  0.73818  1.0000
  I   I171      1.0  0.78628  0.06065  0.49095  1.0000
  I   I172      1.0  0.38312  0.01541  0.19061  1.0000
  I   I173      1.0  0.95861  0.93195  0.94218  1.0000
  I   I174      1.0  0.36745  0.15096  0.18377  1.0000
  I   I175      1.0  0.11377  0.74358  0.67850  1.0000
  I   I176      1.0  0.78947  0.40632  0.13686  1.0000
  I   I177      1.0  0.62379  0.32777  0.53607  1.0000
  I   I178      1.0  0.41925  0.42563  0.82949  1.0000
  I   I179      1.0  0.65542  0.62862  0.03979  1.0000
  I   I180      1.0  0.75253  0.94798  0.86762  1.0000
  I   I181      1.0  0.15152  0.43029  0.54105  1.0000
  I   I182      1.0  0.60871  0.22687  0.11202  1.0000
  I   I183      1.0  0.87739  0.64122  0.18245  1.0000
  I   I184      1.0  0.59776  0.60333  0.28182  1.0000
  I   I185      1.0  0.44802  0.67303  0.63269  1.0000
  I   I186      1.0  0.89573  0.41749  0.30265  1.0000
  I   I187      1.0  0.15560  0.66804  0.74022  1.0000
  I   I188      1.0  0.85012  0.41627  0.57969  1.0000
  I   I189      1.0  0.34118  0.60650  0.65041  1.0000
  I   I190      1.0  0.51305  0.41321  0.26704  1.0000
  I   I191      1.0  0.98218  0.33839  0.72972  1.0000
  I   I192      1.0  0.65329  0.22537  0.71294  1.0000
  I   I193      1.0  0.14980  0.75687  0.13923  1.0000
  I   I194      1.0  0.97563  0.30188  0.82439  1.0000
  I   I195      1.0  0.71575  0.94121  0.39330  1.0000
  I   I196      1.0  0.89178  0.05292  0.19986  1.0000
  I   I197      1.0  0.60855  0.16172  0.34577  1.0000
  I   I198      1.0  0.99485  0.59212  0.75297  1.0000
  I   I199      1.0  0.86914  0.30059  0.45688  1.0000
  I   I200      1.0  0.22661  0.50440  0.77949  1.0000
  I   I201      1.0  0.29999  0.81443  0.08306  1.0000
  I   I202      1.0  0.18538  0.29785  0.04084  1.0000
  I   I203      1.0  0.43605  0.88519  0.95272  1.0000
  I   I204      1.0  0.09305  0.61610  0.46388  1.0000
  I   I205      1.0  0.18572  0.02662  0.03569  1.0000
  I   I206      1.0  0.92022  0.15610  0.39846  1.0000
  I   I207      1.0  0.62810  0.04986  0.69463  1.0000
  I   I208      1.0  0.76700  0.03865  0.21274  1.0000
  I   I209      1.0  0.31940  0.97718  0.87140  1.0000
  I   I210      1.0  0.02034  0.65329  0.18453  1.0000
  I   I211      1.0  0.57921  0.42280  0.11266  1.0000
  I   I212      1.0  0.20360  0.96188  0.56685  1.0000
  I   I213      1.0  0.49617  0.83098  0.87403  1.0000
  I   I214      1.0  0.77765  0.71077  0.65705  1.0000
  I   I215      1.0  0.57423  0.98476  0.62465  1.0000
  I   I216      1.0  0.33607  0.76267  0.73095  1.0000
  I   I217      1.0  0.57110  0.90991  0.72025  1.0000
  I   I218      1.0  0.35621  0.81278  0.29397  1.0000
  I   I219      1.0  0.80671  0.01647  0.56625  1.0000
  I   I220      1.0  0.62879  0.53209  0.73010  1.0000
  I   I221      1.0  0.91732  0.96603  0.02477  1.0000
  I   I222      1.0  0.34098  0.10419  0.18266  1.0000
  I   I223      1.0  0.07393  0.74353  0.75534  1.0000
  I   I224      1.0  0.84853  0.36260  0.18937  1.0000
  I   I225      1.0  0.14678  0.84060  0.30221  1.0000
  I   I226      1.0  0.41348  0.45318  0.71494  1.0000
  I   I227      1.0  0.61927  0.58307  0.07912  1.0000
  I   I228      1.0  0.74549  0.05578  0.85334  1.0000
  I   I229      1.0  0.13174  0.50686  0.32502  1.0000
  I   I230      1.0  0.58983  0.31498  0.97318  1.0000
  I   I231      1.0  0.86334  0.61626  0.07833  1.0000
  I   I232      1.0  0.05100  0.06517  0.50435  1.0000
  I   I233      1.0  0.42431  0.75698  0.63408  1.0000
  I   I234      1.0  0.90692  0.47698  0.20944  1.0000
  I   I235      1.0  0.58491  0.23547  0.29498  1.0000
  I   I236      1.0  0.94801  0.42372  0.67805  1.0000
  I   I237      1.0  0.27070  0.62394  0.70034  1.0000
  I   I238      1.0  0.49425  0.45969  0.45833  1.0000
  I   I239      1.0  0.23792  0.47440  0.12301  1.0000
  I   I240      1.0  0.60097  0.25946  0.72930  1.0000
  I   I241      1.0  0.85281  0.59601  0.40406  1.0000
  I   I242      1.0  0.66138  0.96761  0.89441  1.0000
  I   I243      1.0  0.69633  0.90611  0.49268  1.0000
  I   I244      1.0  0.94365  0.14091  0.23219  1.0000
  I   I245      1.0  0.46856  0.62991  0.02650  1.0000
  I   I246      1.0  0.05723  0.49357  0.89200  1.0000
  I   I247      1.0  0.84475  0.26806  0.50850  1.0000
  I   I248      1.0  0.29899  0.07041  0.52425  1.0000
  I   I249      1.0  0.31264  0.86746  0.06099  1.0000
  I   I250      1.0  0.16273  0.27023  0.94667  1.0000
  I   I251      1.0  0.06408  0.20567  0.62301  1.0000
  I   I252      1.0  0.17022  0.62623  0.56703  1.0000
  I   I253      1.0  0.14731  0.99911  0.04439  1.0000
  I   I254      1.0  0.98393  0.11515  0.40777  1.0000
  I   I255      1.0  0.64251  0.98854  0.62385  1.0000
  I   I256      1.0  0.94450  0.60829  0.67762  1.0000
  I   I257      1.0  0.26383  0.04366  0.85459  1.0000
  I   I258      1.0  0.98128  0.71793  0.23648  1.0000
  I   I259      1.0  0.60278  0.40087  0.00644  1.0000
  I   I260      1.0  0.94699  0.52387  0.02318  1.0000
  I   I261      1.0  0.35233  0.04186  0.56051  1.0000
  I   I262      1.0  0.71271  0.75567  0.60964  1.0000
  I   I263      1.0  0.51699  0.02224  0.54363  1.0000
  I   I264      1.0  0.35740  0.69911  0.76819  1.0000
  I   I265      1.0  0.53270  0.88228  0.68585  1.0000
  I   I266      1.0  0.32645  0.88852  0.40757  1.0000
  I   I267      1.0  0.82201  0.07810  0.69505  1.0000
  I   I268      1.0  0.63955  0.55184  0.63458  1.0000
  I   I269      1.0  0.98230  0.85173  0.07898  1.0000
  I   I270      1.0  0.32104  0.05162  0.15831  1.0000
  I   I271      1.0  0.06633  0.80591  0.72980  1.0000
  I   I272      1.0  0.82894  0.35529  0.04089  1.0000
  I   I273      1.0  0.08054  0.86628  0.25004  1.0000
  I   I274      1.0  0.46879  0.45413  0.82758  1.0000
  I   I275      1.0  0.61088  0.65670  0.92319  1.0000
  I   I276      1.0  0.80197  0.92809  0.92477  1.0000
  I   I277      1.0  0.16007  0.43681  0.32685  1.0000
  I   I278      1.0  0.57653  0.31806  0.13947  1.0000
  I   I279      1.0  0.91515  0.53525  0.26988  1.0000
  I   I280      1.0  0.52771  0.63066  0.25059  1.0000
  I   I281      1.0  0.53273  0.66964  0.63111  1.0000
  I   I282      1.0  0.89507  0.48982  0.37131  1.0000
  I   I283      1.0  0.56003  0.17739  0.49781  1.0000
  I   I284      1.0  0.94454  0.44984  0.56382  1.0000
  I   I285      1.0  0.38587  0.62010  0.71287  1.0000
  I   I286      1.0  0.51685  0.40562  0.41896  1.0000
  I   I287      1.0  0.29661  0.49338  0.18313  1.0000
  I   I288      1.0  0.62866  0.18133  0.76187  1.0000
  I   I289      1.0  0.83684  0.57195  0.49815  1.0000
  I   I290      1.0  0.04817  0.28496  0.78521  1.0000
  I   I291      1.0  0.64584  0.03088  0.90139  1.0000
  I   I292      1.0  0.88627  0.14265  0.24065  1.0000
  I   I293      1.0  0.40067  0.68585  0.04917  1.0000
  I   I294      1.0  0.04335  0.53305  0.77890  1.0000
  I   I295      1.0  0.89219  0.28190  0.55542  1.0000
  I   I296      1.0  0.29410  0.46067  0.78580  1.0000
  I   I297      1.0  0.29098  0.92749  0.06312  1.0000
  I   I298      1.0  0.64347  0.18815  0.29406  1.0000
  I   I299      1.0  0.81138  0.97495  0.13874  1.0000
  I   I300      1.0  0.16956  0.56045  0.55159  1.0000
  I   I301      1.0  0.68204  0.02960  0.57851  1.0000
  I   I302      1.0  0.19951  0.07004  0.07331  1.0000
  I   I303      1.0  0.24409  0.34002  0.95801  1.0000
  I   I304      1.0  0.95309  0.69407  0.15970  1.0000
  I   I305      1.0  0.84119  0.00587  0.22149  1.0000
  I   I306      1.0  0.55336  0.27963  0.15953  1.0000
  I   I307      1.0  0.50596  0.49076  0.89877  1.0000
  I   I308      1.0  0.26946  0.94684  0.60887  1.0000
  I   I309      1.0  0.31735  0.02348  0.45610  1.0000
  I   I310      1.0  0.59924  0.74750  0.66164  1.0000
  I   I311      1.0  0.55528  0.02615  0.74276  1.0000
  I   I312      1.0  0.06429  0.15450  0.19042  1.0000
  I   I313      1.0  0.74770  0.05316  0.58519  1.0000
  I   I314      1.0  0.62561  0.85363  0.67687  1.0000
  I   I315      1.0  0.41629  0.82000  0.26519  1.0000
  I   I316      1.0  0.33930  0.05208  0.27841  1.0000
  I   I317      1.0  0.69439  0.50139  0.61404  1.0000
  I   I318      1.0  0.90150  0.95709  0.90478  1.0000
  I   I319      1.0  0.68494  0.27472  0.59299  1.0000
  I   I320      1.0  0.68682  0.22781  0.12770  1.0000
  I   I321      1.0  0.84455  0.39942  0.09347  1.0000
  I   I322      1.0  0.43304  0.52200  0.84619  1.0000
  I   I323      1.0  0.65556  0.58851  0.94497  1.0000
  I   I324      1.0  0.80843  0.97896  0.84677  1.0000
  I   I325      1.0  0.15664  0.45583  0.44140  1.0000
  I   I326      1.0  0.62068  0.26409  0.18211  1.0000
  I   I327      1.0  0.89279  0.58903  0.23256  1.0000
  I   I328      1.0  0.27325  0.33123  0.06924  1.0000
  I   I329      1.0  0.47841  0.72222  0.58833  1.0000
  I   I330      1.0  0.86006  0.47471  0.28989  1.0000
  I   I331      1.0  0.40645  0.55864  0.74669  1.0000
  I   I332      1.0  0.56609  0.21795  0.38036  1.0000
  I   I333      1.0  0.83533  0.48185  0.54373  1.0000
  I   I334      1.0  0.66153  0.20618  0.84588  1.0000
  I   I335      1.0  0.52058  0.48186  0.37162  1.0000
  I   I336      1.0  0.24118  0.49341  0.22839  1.0000
  I   I337      1.0  0.11635  0.72855  0.11106  1.0000
  I   I338      1.0  0.00849  0.34173  0.85045  1.0000
  I   I339      1.0  0.60495  0.99934  0.85456  1.0000
  I   I340      1.0  0.89959  0.07497  0.09083  1.0000
  I   I341      1.0  0.73402  0.74658  0.42572  1.0000
  I   I342      1.0  0.01306  0.61903  0.84438  1.0000
  I   I343      1.0  0.84758  0.28609  0.33506  1.0000
  I   I344      1.0  0.27081  0.50861  0.69307  1.0000
  I   I345      1.0  0.30037  0.82419  0.97455  1.0000
  I   I346      1.0  0.55143  0.17109  0.38553  1.0000
  I   I347      1.0  0.20022  0.30479  0.91492  1.0000
  I   I348      1.0  0.16146  0.60609  0.47046  1.0000
  I   I349      1.0  0.61823  0.05887  0.58665  1.0000
  I   I350      1.0  0.16898  0.01563  0.92172  1.0000
  I   I351      1.0  0.05192  0.12021  0.47967  1.0000
  I   I352      1.0  0.97633  0.77170  0.08647  1.0000
  I   I353      1.0  0.89853  0.63230  0.77644  1.0000
  I   I354      1.0  0.56966  0.23075  0.02463  1.0000
  I   I355      1.0  0.59950  0.45844  0.04691  1.0000
  I   I356      1.0  0.01693  0.47463  0.03182  1.0000
  I   I357      1.0  0.42427  0.87499  0.84229  1.0000
  I   I358      1.0  0.36987  0.74134  0.84056  1.0000
  I   I359      1.0  0.52901  0.96230  0.58593  1.0000
  I   I360      1.0  0.03744  0.13698  0.27933  1.0000
  I   I361      1.0  0.76968  0.10606  0.56104  1.0000
  I   I362      1.0  0.63500  0.88233  0.78618  1.0000
  I   I363      1.0  0.31467  0.87619  0.30662  1.0000
  I   I364      1.0  0.41130  0.08997  0.16682  1.0000
  I   I365      1.0  0.66544  0.52769  0.52040  1.0000
  I   I366      1.0  0.95103  0.82623  0.99058  1.0000
  I   I367      1.0  0.65092  0.34841  0.64013  1.0000
  I   I368      1.0  0.74752  0.20991  0.13268  1.0000
  I   I369      1.0  0.82257  0.32983  0.12222  1.0000
  I   I370      1.0  0.44104  0.44568  0.91375  1.0000
  I   I371      1.0  0.63053  0.69114  0.99162  1.0000
  I   I372      1.0  0.73918  0.00857  0.86944  1.0000
  I   I373      1.0  0.09731  0.48158  0.30051  1.0000
  I   I374      1.0  0.54333  0.36199  0.05197  1.0000
  I   I375      1.0  0.89749  0.56185  0.12663  1.0000
  I   I376      1.0  0.54738  0.65105  0.36379  1.0000
  I   I377      1.0  0.45974  0.68806  0.53917  1.0000
  I   I378      1.0  0.94275  0.44635  0.29414  1.0000
  I   I379      1.0  0.30970  0.55407  0.66413  1.0000
  I   I380      1.0  0.12786  0.69974  0.86114  1.0000
  I   I381      1.0  0.89180  0.47527  0.62751  1.0000
  I   I382      1.0  0.64776  0.26786  0.79872  1.0000
  I   I383      1.0  0.55738  0.42637  0.33243  1.0000
  I   I384      1.0  0.24459  0.52745  0.10098  1.0000
