data_image0
_chemical_formula_structural       Ti96I384
_chemical_formula_sum              "Ti96 I384"
_cell_length_a       40.4595
_cell_length_b       39.9273
_cell_length_c       22.3002
_cell_angle_alpha    88.7757
_cell_angle_beta     88.7757
_cell_angle_gamma    62.1586

_space_group_name_H-M_alt    "P 1"
_space_group_IT_number       1

loop_
  _space_group_symop_operation_xyz
  'x, y, z'

loop_
  _atom_site_type_symbol
  _atom_site_label
  _atom_site_symmetry_multiplicity
  _atom_site_fract_x
  _atom_site_fract_y
  _atom_site_fract_z
  _atom_site_occupancy
  Ti  Ti1       1.0  0.13992  0.09501  0.13038  1.0000
  Ti  Ti2       1.0  0.14600  0.08582  0.47337  1.0000
  Ti  Ti3       1.0  0.15766  0.10787  0.81137  1.0000
  Ti  Ti4       1.0  0.20603  0.32343  0.30359  1.0000
  Ti  Ti5       1.0  0.20082  0.33024  0.65132  1.0000
  Ti  Ti6       1.0  0.18574  0.31987  0.00163  1.0000
  Ti  Ti7       1.0  0.12224  0.65413  0.35431  1.0000
  Ti  Ti8       1.0  0.10313  0.65729  0.69007  1.0000
  Ti  Ti9       1.0  0.11806  0.64370  0.01951  1.0000
  Ti  Ti10      1.0  0.13307  0.89248  0.27946  1.0000
  Ti  Ti11      1.0  0.13358  0.87242  0.62173  1.0000
  Ti  Ti12      1.0  0.13183  0.89733  0.94106  1.0000
  Ti  Ti13      1.0  0.45158  0.07163  0.24830  1.0000
  Ti  Ti14      1.0  0.44551  0.05383  0.56931  1.0000
  Ti  Ti15      1.0  0.44910  0.06352  0.90422  1.0000
  Ti  Ti16      1.0  0.37069  0.38725  0.38802  1.0000
  Ti  Ti17      1.0  0.37079  0.37168  0.71053  1.0000
  Ti  Ti18      1.0  0.35237  0.38881  0.05652  1.0000
  Ti  Ti19      1.0  0.37690  0.63037  0.32890  1.0000
  Ti  Ti20      1.0  0.37476  0.65259  0.64808  1.0000
  Ti  Ti21      1.0  0.40492  0.61873  0.98572  1.0000
  Ti  Ti22      1.0  0.45025  0.83730  0.05167  1.0000
  Ti  Ti23      1.0  0.36439  0.87385  0.40783  1.0000
  Ti  Ti24      1.0  0.41363  0.83217  0.69361  1.0000
  Ti  Ti25      1.0  0.63543  0.13220  0.28619  1.0000
  Ti  Ti26      1.0  0.62741  0.12877  0.61371  1.0000
  Ti  Ti27      1.0  0.62129  0.13760  0.94834  1.0000
  Ti  Ti28      1.0  0.65666  0.33337  0.23218  1.0000
  Ti  Ti29      1.0  0.65434  0.33890  0.57944  1.0000
  Ti  Ti30      1.0  0.65673  0.33831  0.89764  1.0000
  Ti  Ti31      1.0  0.69482  0.56303  0.08948  1.0000
  Ti  Ti32      1.0  0.68163  0.56973  0.43925  1.0000
  Ti  Ti33      1.0  0.69272  0.57646  0.76291  1.0000
  Ti  Ti34      1.0  0.67311  0.80034  0.29675  1.0000
  Ti  Ti35      1.0  0.68741  0.80413  0.62250  1.0000
  Ti  Ti36      1.0  0.67775  0.82726  0.94455  1.0000
  Ti  Ti37      1.0  0.88349  0.11561  0.22787  1.0000
  Ti  Ti38      1.0  0.90116  0.11036  0.55385  1.0000
  Ti  Ti39      1.0  0.90640  0.11422  0.88960  1.0000
  Ti  Ti40      1.0  0.92408  0.31045  0.11798  1.0000
  Ti  Ti41      1.0  0.94070  0.29821  0.43844  1.0000
  Ti  Ti42      1.0  0.93013  0.31000  0.78673  1.0000
  Ti  Ti43      1.0  0.94318  0.53250  0.29198  1.0000
  Ti  Ti44      1.0  0.96083  0.52087  0.61496  1.0000
  Ti  Ti45      1.0  0.93268  0.53551  0.97321  1.0000
  Ti  Ti46      1.0  0.86053  0.87947  0.36648  1.0000
  Ti  Ti47      1.0  0.85630  0.86514  0.68927  1.0000
  Ti  Ti48      1.0  0.87168  0.85512  0.03682  1.0000
  Ti  Ti49      1.0  0.08211  0.16106  0.97609  1.0000
  Ti  Ti50      1.0  0.07727  0.14343  0.30783  1.0000
  Ti  Ti51      1.0  0.10081  0.15554  0.63757  1.0000
  Ti  Ti52      1.0  0.12766  0.33972  0.15587  1.0000
  Ti  Ti53      1.0  0.13392  0.34545  0.47645  1.0000
  Ti  Ti54      1.0  0.12110  0.35238  0.81566  1.0000
  Ti  Ti55      1.0  0.05792  0.69631  0.18304  1.0000
  Ti  Ti56      1.0  0.03041  0.69246  0.51160  1.0000
  Ti  Ti57      1.0  0.04631  0.70712  0.85455  1.0000
  Ti  Ti58      1.0  0.05951  0.94542  0.10353  1.0000
  Ti  Ti59      1.0  0.06573  0.92763  0.44840  1.0000
  Ti  Ti60      1.0  0.06155  0.93125  0.78540  1.0000
  Ti  Ti61      1.0  0.39519  0.13105  0.07545  1.0000
  Ti  Ti62      1.0  0.40644  0.13280  0.41044  1.0000
  Ti  Ti63      1.0  0.39738  0.13469  0.73768  1.0000
  Ti  Ti64      1.0  0.30974  0.46253  0.21679  1.0000
  Ti  Ti65      1.0  0.31980  0.46469  0.55540  1.0000
  Ti  Ti66      1.0  0.30656  0.43314  0.88088  1.0000
  Ti  Ti67      1.0  0.32458  0.67574  0.13599  1.0000
  Ti  Ti68      1.0  0.30245  0.69633  0.47236  1.0000
  Ti  Ti69      1.0  0.32665  0.68347  0.84335  1.0000
  Ti  Ti70      1.0  0.41990  0.87504  0.87879  1.0000
  Ti  Ti71      1.0  0.29127  0.95193  0.28639  1.0000
  Ti  Ti72      1.0  0.33345  0.93125  0.58013  1.0000
  Ti  Ti73      1.0  0.56166  0.20315  0.13704  1.0000
  Ti  Ti74      1.0  0.56397  0.18454  0.43941  1.0000
  Ti  Ti75      1.0  0.56342  0.18314  0.78556  1.0000
  Ti  Ti76      1.0  0.58875  0.38023  0.06209  1.0000
  Ti  Ti77      1.0  0.58206  0.37936  0.40831  1.0000
  Ti  Ti78      1.0  0.58565  0.39370  0.73153  1.0000
  Ti  Ti79      1.0  0.62748  0.62200  0.92720  1.0000
  Ti  Ti80      1.0  0.62412  0.61943  0.26598  1.0000
  Ti  Ti81      1.0  0.62302  0.61997  0.61688  1.0000
  Ti  Ti82      1.0  0.61548  0.86566  0.11660  1.0000
  Ti  Ti83      1.0  0.62183  0.85153  0.45374  1.0000
  Ti  Ti84      1.0  0.61310  0.87302  0.76328  1.0000
  Ti  Ti85      1.0  0.83529  0.17731  0.06029  1.0000
  Ti  Ti86      1.0  0.83618  0.18138  0.40786  1.0000
  Ti  Ti87      1.0  0.84898  0.17392  0.72129  1.0000
  Ti  Ti88      1.0  0.86674  0.38210  0.94328  1.0000
  Ti  Ti89      1.0  0.86805  0.35531  0.27378  1.0000
  Ti  Ti90      1.0  0.87449  0.35671  0.60798  1.0000
  Ti  Ti91      1.0  0.89280  0.60833  0.13497  1.0000
  Ti  Ti92      1.0  0.90811  0.60404  0.46219  1.0000
  Ti  Ti93      1.0  0.90100  0.59441  0.79400  1.0000
  Ti  Ti94      1.0  0.80926  0.93341  0.19852  1.0000
  Ti  Ti95      1.0  0.80728  0.93825  0.53539  1.0000
  Ti  Ti96      1.0  0.81275  0.92182  0.86649  1.0000
  I   I1        1.0  0.07812  0.09762  0.20347  1.0000
  I   I2        1.0  0.08359  0.11384  0.55006  1.0000
  I   I3        1.0  0.07698  0.14166  0.85983  1.0000
  I   I4        1.0  0.14478  0.31050  0.36763  1.0000
  I   I5        1.0  0.14172  0.31532  0.70975  1.0000
  I   I6        1.0  0.13898  0.29752  0.06233  1.0000
  I   I7        1.0  0.05251  0.65893  0.40458  1.0000
  I   I8        1.0  0.03375  0.66950  0.76585  1.0000
  I   I9        1.0  0.04762  0.66016  0.08017  1.0000
  I   I10       1.0  0.05863  0.91089  0.32856  1.0000
  I   I11       1.0  0.07332  0.87471  0.69386  1.0000
  I   I12       1.0  0.05746  0.91506  0.00361  1.0000
  I   I13       1.0  0.38156  0.10607  0.31704  1.0000
  I   I14       1.0  0.37885  0.10406  0.63023  1.0000
  I   I15       1.0  0.38269  0.09334  0.97174  1.0000
  I   I16       1.0  0.29571  0.44027  0.45248  1.0000
  I   I17       1.0  0.29663  0.40816  0.77541  1.0000
  I   I18       1.0  0.28138  0.43800  0.11902  1.0000
  I   I19       1.0  0.29565  0.65313  0.39845  1.0000
  I   I20       1.0  0.31486  0.66067  0.72507  1.0000
  I   I21       1.0  0.33111  0.62589  0.04795  1.0000
  I   I22       1.0  0.28133  0.94337  0.17149  1.0000
  I   I23       1.0  0.29871  0.92159  0.48443  1.0000
  I   I24       1.0  0.37297  0.85481  0.81296  1.0000
  I   I25       1.0  0.55574  0.15742  0.33222  1.0000
  I   I26       1.0  0.55867  0.14239  0.67804  1.0000
  I   I27       1.0  0.55472  0.16403  0.02451  1.0000
  I   I28       1.0  0.58700  0.34590  0.28086  1.0000
  I   I29       1.0  0.58347  0.35162  0.63163  1.0000
  I   I30       1.0  0.58563  0.35519  0.95119  1.0000
  I   I31       1.0  0.61875  0.57790  0.16805  1.0000
  I   I32       1.0  0.61063  0.59252  0.49643  1.0000
  I   I33       1.0  0.62419  0.58698  0.83355  1.0000
  I   I34       1.0  0.59863  0.83572  0.35032  1.0000
  I   I35       1.0  0.61497  0.81975  0.68258  1.0000
  I   I36       1.0  0.60880  0.83277  0.00675  1.0000
  I   I37       1.0  0.81273  0.15544  0.30340  1.0000
  I   I38       1.0  0.83304  0.13765  0.62283  1.0000
  I   I39       1.0  0.82147  0.15015  0.95000  1.0000
  I   I40       1.0  0.84829  0.34055  0.16599  1.0000
  I   I41       1.0  0.86522  0.32065  0.49829  1.0000
  I   I42       1.0  0.85972  0.33644  0.85250  1.0000
  I   I43       1.0  0.87274  0.59224  0.35645  1.0000
  I   I44       1.0  0.88757  0.56247  0.69195  1.0000
  I   I45       1.0  0.86279  0.58367  0.04281  1.0000
  I   I46       1.0  0.78893  0.91746  0.42156  1.0000
  I   I47       1.0  0.78952  0.89688  0.75399  1.0000
  I   I48       1.0  0.80020  0.89109  0.10126  1.0000
  I   I49       1.0  0.10803  0.17196  0.08653  1.0000
  I   I50       1.0  0.10185  0.16124  0.41033  1.0000
  I   I51       1.0  0.12274  0.17772  0.74624  1.0000
  I   I52       1.0  0.13082  0.37546  0.25633  1.0000
  I   I53       1.0  0.13817  0.37870  0.59057  1.0000
  I   I54       1.0  0.12834  0.38000  0.93028  1.0000
  I   I55       1.0  0.07307  0.72091  0.28969  1.0000
  I   I56       1.0  0.04562  0.71726  0.62259  1.0000
  I   I57       1.0  0.08089  0.71549  0.95488  1.0000
  I   I58       1.0  0.09055  0.95985  0.21851  1.0000
  I   I59       1.0  0.08599  0.95005  0.56238  1.0000
  I   I60       1.0  0.07413  0.97030  0.87276  1.0000
  I   I61       1.0  0.42389  0.14682  0.18072  1.0000
  I   I62       1.0  0.44618  0.12738  0.50708  1.0000
  I   I63       1.0  0.43443  0.13060  0.83837  1.0000
  I   I64       1.0  0.34032  0.46855  0.31670  1.0000
  I   I65       1.0  0.34878  0.45422  0.66579  1.0000
  I   I66       1.0  0.33932  0.45339  0.97761  1.0000
  I   I67       1.0  0.33595  0.70142  0.24909  1.0000
  I   I68       1.0  0.32067  0.72469  0.58796  1.0000
  I   I69       1.0  0.34937  0.69922  0.94651  1.0000
  I   I70       1.0  0.47402  0.88356  0.93392  1.0000
  I   I71       1.0  0.36206  0.93463  0.33897  1.0000
  I   I72       1.0  0.39717  0.90834  0.65865  1.0000
  I   I73       1.0  0.59615  0.21532  0.22501  1.0000
  I   I74       1.0  0.58128  0.20789  0.55971  1.0000
  I   I75       1.0  0.57737  0.21286  0.88969  1.0000
  I   I76       1.0  0.61602  0.40454  0.15819  1.0000
  I   I77       1.0  0.59175  0.41309  0.50606  1.0000
  I   I78       1.0  0.60820  0.41757  0.83061  1.0000
  I   I79       1.0  0.65628  0.64070  0.04187  1.0000
  I   I80       1.0  0.64978  0.64169  0.36704  1.0000
  I   I81       1.0  0.63599  0.64916  0.71669  1.0000
  I   I82       1.0  0.63628  0.87754  0.23387  1.0000
  I   I83       1.0  0.64390  0.87521  0.55353  1.0000
  I   I84       1.0  0.63298  0.89727  0.86745  1.0000
  I   I85       1.0  0.85544  0.18981  0.17235  1.0000
  I   I86       1.0  0.86615  0.18448  0.51594  1.0000
  I   I87       1.0  0.88758  0.18172  0.81472  1.0000
  I   I88       1.0  0.88605  0.40512  0.04112  1.0000
  I   I89       1.0  0.90099  0.36671  0.37705  1.0000
  I   I90       1.0  0.90637  0.37666  0.69571  1.0000
  I   I91       1.0  0.93154  0.60412  0.23615  1.0000
  I   I92       1.0  0.96026  0.58660  0.54534  1.0000
  I   I93       1.0  0.92601  0.60491  0.90022  1.0000
  I   I94       1.0  0.83215  0.95195  0.30380  1.0000
  I   I95       1.0  0.84059  0.94289  0.64012  1.0000
  I   I96       1.0  0.84489  0.93028  0.98317  1.0000
  I   I97       1.0  0.16287  0.12842  0.92599  1.0000
  I   I98       1.0  0.14217  0.12958  0.24743  1.0000
  I   I99       1.0  0.16550  0.12116  0.56559  1.0000
  I   I100      1.0  0.18476  0.36261  0.09638  1.0000
  I   I101      1.0  0.19177  0.36278  0.41500  1.0000
  I   I102      1.0  0.17982  0.37167  0.75240  1.0000
  I   I103      1.0  0.12745  0.67558  0.14036  1.0000
  I   I104      1.0  0.11206  0.69140  0.46684  1.0000
  I   I105      1.0  0.11051  0.69332  0.77857  1.0000
  I   I106      1.0  0.12648  0.93918  0.04269  1.0000
  I   I107      1.0  0.13740  0.91661  0.39014  1.0000
  I   I108      1.0  0.12865  0.91905  0.71178  1.0000
  I   I109      1.0  0.46631  0.09213  0.01429  1.0000
  I   I110      1.0  0.47789  0.09314  0.34753  1.0000
  I   I111      1.0  0.46125  0.10064  0.66013  1.0000
  I   I112      1.0  0.37573  0.41891  0.14209  1.0000
  I   I113      1.0  0.38906  0.41874  0.48379  1.0000
  I   I114      1.0  0.38186  0.40064  0.83057  1.0000
  I   I115      1.0  0.40138  0.66101  0.09415  1.0000
  I   I116      1.0  0.36848  0.68287  0.41915  1.0000
  I   I117      1.0  0.38972  0.68053  0.76175  1.0000
  I   I118      1.0  0.45883  0.84772  0.77927  1.0000
  I   I119      1.0  0.46119  0.87011  0.13810  1.0000
  I   I120      1.0  0.39357  0.89752  0.49476  1.0000
  I   I121      1.0  0.62608  0.17140  0.06312  1.0000
  I   I122      1.0  0.63830  0.16370  0.38673  1.0000
  I   I123      1.0  0.63296  0.16313  0.72152  1.0000
  I   I124      1.0  0.66391  0.37457  0.98935  1.0000
  I   I125      1.0  0.64494  0.37094  0.33851  1.0000
  I   I126      1.0  0.66002  0.37105  0.67946  1.0000
  I   I127      1.0  0.70321  0.60040  0.87265  1.0000
  I   I128      1.0  0.69532  0.60140  0.19131  1.0000
  I   I129      1.0  0.67913  0.61980  0.54630  1.0000
  I   I130      1.0  0.68762  0.84940  0.06276  1.0000
  I   I131      1.0  0.69271  0.82700  0.39342  1.0000
  I   I132      1.0  0.68615  0.85129  0.71515  1.0000
  I   I133      1.0  0.90713  0.13458  0.01011  1.0000
  I   I134      1.0  0.90442  0.14158  0.33943  1.0000
  I   I135      1.0  0.92520  0.13194  0.65176  1.0000
  I   I136      1.0  0.93386  0.36077  0.87379  1.0000
  I   I137      1.0  0.93903  0.34300  0.21553  1.0000
  I   I138      1.0  0.95239  0.32093  0.55262  1.0000
  I   I139      1.0  0.96558  0.55702  0.08290  1.0000
  I   I140      1.0  0.97001  0.55029  0.38260  1.0000
  I   I141      1.0  0.97358  0.54871  0.72995  1.0000
  I   I142      1.0  0.88525  0.88054  0.14588  1.0000
  I   I143      1.0  0.86975  0.92131  0.45554  1.0000
  I   I144      1.0  0.87930  0.88598  0.79776  1.0000
  I   I145      1.0  0.11249  0.08515  0.03363  1.0000
  I   I146      1.0  0.11997  0.06325  0.37429  1.0000
  I   I147      1.0  0.13240  0.08498  0.70329  1.0000
  I   I148      1.0  0.20148  0.27627  0.21779  1.0000
  I   I149      1.0  0.20280  0.28227  0.53850  1.0000
  I   I150      1.0  0.19468  0.28738  0.88229  1.0000
  I   I151      1.0  0.09727  0.62326  0.25381  1.0000
  I   I152      1.0  0.07348  0.62902  0.59641  1.0000
  I   I153      1.0  0.10142  0.63224  0.90830  1.0000
  I   I154      1.0  0.10601  0.87513  0.16108  1.0000
  I   I155      1.0  0.10365  0.85776  0.52456  1.0000
  I   I156      1.0  0.11543  0.86376  0.84698  1.0000
  I   I157      1.0  0.42144  0.05937  0.13409  1.0000
  I   I158      1.0  0.41838  0.05475  0.46440  1.0000
  I   I159      1.0  0.42284  0.05817  0.79123  1.0000
  I   I160      1.0  0.33037  0.38706  0.29071  1.0000
  I   I161      1.0  0.33984  0.38203  0.60160  1.0000
  I   I162      1.0  0.32740  0.35923  0.95355  1.0000
  I   I163      1.0  0.36972  0.60411  0.22366  1.0000
  I   I164      1.0  0.34980  0.62941  0.54650  1.0000
  I   I165      1.0  0.38232  0.60750  0.88334  1.0000
  I   I166      1.0  0.44828  0.80190  0.93946  1.0000
  I   I167      1.0  0.33100  0.86984  0.30165  1.0000
  I   I168      1.0  0.35208  0.85270  0.62309  1.0000
  I   I169      1.0  0.60195  0.12019  0.19500  1.0000
  I   I170      1.0  0.60441  0.11439  0.50253  1.0000
  I   I171      1.0  0.60602  0.11180  0.84742  1.0000
  I   I172      1.0  0.64168  0.31535  0.11685  1.0000
  I   I173      1.0  0.62978  0.31080  0.48581  1.0000
  I   I174      1.0  0.62022  0.32095  0.78785  1.0000
  I   I175      1.0  0.66120  0.54779  0.98323  1.0000
  I   I176      1.0  0.65274  0.55241  0.34467  1.0000
  I   I177      1.0  0.67931  0.54933  0.65527  1.0000
  I   I178      1.0  0.63240  0.79463  0.17025  1.0000
  I   I179      1.0  0.66158  0.78009  0.52500  1.0000
  I   I180      1.0  0.65555  0.80516  0.84132  1.0000
  I   I181      1.0  0.84300  0.11492  0.12265  1.0000
  I   I182      1.0  0.86532  0.09863  0.45720  1.0000
  I   I183      1.0  0.88264  0.09941  0.78247  1.0000
  I   I184      1.0  0.90689  0.29661  0.01325  1.0000
  I   I185      1.0  0.91736  0.27819  0.33300  1.0000
  I   I186      1.0  0.90056  0.28995  0.70225  1.0000
  I   I187      1.0  0.90058  0.53391  0.19499  1.0000
  I   I188      1.0  0.91576  0.52956  0.52013  1.0000
  I   I189      1.0  0.89627  0.53176  0.87435  1.0000
  I   I190      1.0  0.82580  0.86276  0.27499  1.0000
  I   I191      1.0  0.82872  0.86406  0.56524  1.0000
  I   I192      1.0  0.84295  0.84942  0.92451  1.0000
  I   I193      1.0  0.21048  0.07661  0.11028  1.0000
  I   I194      1.0  0.20565  0.08311  0.42018  1.0000
  I   I195      1.0  0.21946  0.10340  0.76504  1.0000
  I   I196      1.0  0.23829  0.35967  0.25791  1.0000
  I   I197      1.0  0.25339  0.34631  0.61674  1.0000
  I   I198      1.0  0.23154  0.34381  0.94352  1.0000
  I   I199      1.0  0.17590  0.66443  0.31139  1.0000
  I   I200      1.0  0.16458  0.65223  0.63494  1.0000
  I   I201      1.0  0.18596  0.63390  0.98572  1.0000
  I   I202      1.0  0.20268  0.88011  0.25343  1.0000
  I   I203      1.0  0.19080  0.87566  0.56793  1.0000
  I   I204      1.0  0.18286  0.90956  0.88800  1.0000
  I   I205      1.0  0.51538  0.04908  0.18834  1.0000
  I   I206      1.0  0.51646  0.01517  0.53436  1.0000
  I   I207      1.0  0.51665  0.03992  0.87269  1.0000
  I   I208      1.0  0.43082  0.35803  0.31805  1.0000
  I   I209      1.0  0.43986  0.34502  0.67612  1.0000
  I   I210      1.0  0.42035  0.34379  0.01665  1.0000
  I   I211      1.0  0.44041  0.62655  0.30652  1.0000
  I   I212      1.0  0.42684  0.64974  0.58331  1.0000
  I   I213      1.0  0.46868  0.61630  0.95131  1.0000
  I   I214      1.0  0.52527  0.79053  0.04429  1.0000
  I   I215      1.0  0.43507  0.82345  0.38152  1.0000
  I   I216      1.0  0.46411  0.80935  0.61105  1.0000
  I   I217      1.0  0.70867  0.10323  0.25451  1.0000
  I   I218      1.0  0.68872  0.13562  0.56965  1.0000
  I   I219      1.0  0.67955  0.14715  0.91636  1.0000
  I   I220      1.0  0.71439  0.34744  0.20996  1.0000
  I   I221      1.0  0.69922  0.35203  0.51350  1.0000
  I   I222      1.0  0.71374  0.32909  0.83264  1.0000
  I   I223      1.0  0.76162  0.55124  0.06855  1.0000
  I   I224      1.0  0.74387  0.54567  0.37761  1.0000
  I   I225      1.0  0.74986  0.58402  0.71665  1.0000
  I   I226      1.0  0.73382  0.77196  0.23433  1.0000
  I   I227      1.0  0.74153  0.81464  0.57665  1.0000
  I   I228      1.0  0.73398  0.83648  0.90804  1.0000
  I   I229      1.0  0.95089  0.08550  0.19356  1.0000
  I   I230      1.0  0.96173  0.09371  0.49614  1.0000
  I   I231      1.0  0.97704  0.08754  0.86166  1.0000
  I   I232      1.0  0.99014  0.29863  0.06720  1.0000
  I   I233      1.0  0.01223  0.27721  0.42091  1.0000
  I   I234      1.0  0.99384  0.28654  0.72608  1.0000
  I   I235      1.0  0.01034  0.49123  0.23972  1.0000
  I   I236      1.0  0.02375  0.48706  0.55998  1.0000
  I   I237      1.0  0.00083  0.50086  0.92181  1.0000
  I   I238      1.0  0.92811  0.85914  0.31911  1.0000
  I   I239      1.0  0.92011  0.84230  0.62932  1.0000
  I   I240      1.0  0.93456  0.83656  0.98202  1.0000
  I   I241      1.0  0.16163  0.01962  0.16053  1.0000
  I   I242      1.0  0.19062  0.01881  0.52114  1.0000
  I   I243      1.0  0.17546  0.03755  0.83222  1.0000
  I   I244      1.0  0.27051  0.26718  0.34848  1.0000
  I   I245      1.0  0.25057  0.26362  0.69963  1.0000
  I   I246      1.0  0.24080  0.25175  0.02471  1.0000
  I   I247      1.0  0.15882  0.58541  0.39952  1.0000
  I   I248      1.0  0.14534  0.58841  0.73562  1.0000
  I   I249      1.0  0.14610  0.57321  0.05980  1.0000
  I   I250      1.0  0.15066  0.82242  0.31892  1.0000
  I   I251      1.0  0.17772  0.80429  0.66663  1.0000
  I   I252      1.0  0.18092  0.83345  0.98627  1.0000
  I   I253      1.0  0.46585  0.00203  0.27816  1.0000
  I   I254      1.0  0.44123  0.99700  0.61930  1.0000
  I   I255      1.0  0.46435  0.99411  0.94500  1.0000
  I   I256      1.0  0.37463  0.32344  0.43641  1.0000
  I   I257      1.0  0.36655  0.31193  0.74469  1.0000
  I   I258      1.0  0.35922  0.32811  0.11577  1.0000
  I   I259      1.0  0.40366  0.56562  0.38586  1.0000
  I   I260      1.0  0.40835  0.58228  0.68007  1.0000
  I   I261      1.0  0.43967  0.54676  0.01651  1.0000
  I   I262      1.0  0.43062  0.78876  0.09755  1.0000
  I   I263      1.0  0.35170  0.82006  0.45016  1.0000
  I   I264      1.0  0.42469  0.76446  0.71650  1.0000
  I   I265      1.0  0.64861  0.06893  0.34460  1.0000
  I   I266      1.0  0.65794  0.05762  0.64286  1.0000
  I   I267      1.0  0.65675  0.07082  0.99055  1.0000
  I   I268      1.0  0.70227  0.26642  0.26704  1.0000
  I   I269      1.0  0.69371  0.26842  0.61376  1.0000
  I   I270      1.0  0.68290  0.27043  0.94172  1.0000
  I   I271      1.0  0.72151  0.49450  0.13048  1.0000
  I   I272      1.0  0.71016  0.50849  0.50035  1.0000
  I   I273      1.0  0.73012  0.50606  0.80592  1.0000
  I   I274      1.0  0.67734  0.73706  0.33937  1.0000
  I   I275      1.0  0.71829  0.73802  0.67017  1.0000
  I   I276      1.0  0.71912  0.75300  0.96666  1.0000
  I   I277      1.0  0.88838  0.05330  0.27279  1.0000
  I   I278      1.0  0.92079  0.03831  0.58938  1.0000
  I   I279      1.0  0.91047  0.05078  0.93275  1.0000
  I   I280      1.0  0.93689  0.24816  0.16555  1.0000
  I   I281      1.0  0.94387  0.23394  0.47987  1.0000
  I   I282      1.0  0.95473  0.24558  0.84597  1.0000
  I   I283      1.0  0.92974  0.47995  0.33557  1.0000
  I   I284      1.0  0.95483  0.46068  0.64737  1.0000
  I   I285      1.0  0.93702  0.47612  0.02243  1.0000
  I   I286      1.0  0.87403  0.81506  0.41421  1.0000
  I   I287      1.0  0.86805  0.80002  0.73179  1.0000
  I   I288      1.0  0.88711  0.78440  0.05143  1.0000
  I   I289      1.0  0.01636  0.17950  0.02179  1.0000
  I   I290      1.0  0.02134  0.13430  0.35401  1.0000
  I   I291      1.0  0.03561  0.16796  0.68739  1.0000
  I   I292      1.0  0.09158  0.30754  0.21465  1.0000
  I   I293      1.0  0.09151  0.31897  0.51497  1.0000
  I   I294      1.0  0.08533  0.31408  0.84223  1.0000
  I   I295      1.0  0.99908  0.68871  0.22885  1.0000
  I   I296      1.0  0.97805  0.67347  0.53306  1.0000
  I   I297      1.0  0.99765  0.70585  0.92888  1.0000
  I   I298      1.0  0.99686  0.95183  0.16590  1.0000
  I   I299      1.0  0.00013  0.93646  0.47885  1.0000
  I   I300      1.0  0.00940  0.91566  0.83147  1.0000
  I   I301      1.0  0.32961  0.14735  0.12570  1.0000
  I   I302      1.0  0.34475  0.17596  0.46622  1.0000
  I   I303      1.0  0.32999  0.15064  0.77162  1.0000
  I   I304      1.0  0.24444  0.48241  0.26025  1.0000
  I   I305      1.0  0.25072  0.49244  0.60555  1.0000
  I   I306      1.0  0.24356  0.45406  0.93899  1.0000
  I   I307      1.0  0.26615  0.66702  0.18225  1.0000
  I   I308      1.0  0.23995  0.71535  0.53949  1.0000
  I   I309      1.0  0.26701  0.68206  0.88427  1.0000
  I   I310      1.0  0.38027  0.89173  0.99027  1.0000
  I   I311      1.0  0.23194  0.95045  0.33253  1.0000
  I   I312      1.0  0.27866  0.97138  0.65951  1.0000
  I   I313      1.0  0.50154  0.20022  0.17938  1.0000
  I   I314      1.0  0.50416  0.19190  0.50100  1.0000
  I   I315      1.0  0.50434  0.17629  0.81416  1.0000
  I   I316      1.0  0.53506  0.37889  0.12591  1.0000
  I   I317      1.0  0.53025  0.36142  0.43639  1.0000
  I   I318      1.0  0.51600  0.40926  0.75724  1.0000
  I   I319      1.0  0.56233  0.63646  0.97584  1.0000
  I   I320      1.0  0.56186  0.63394  0.31558  1.0000
  I   I321      1.0  0.57390  0.59991  0.66465  1.0000
  I   I322      1.0  0.54671  0.89123  0.15572  1.0000
  I   I323      1.0  0.56276  0.85483  0.51520  1.0000
  I   I324      1.0  0.54806  0.89361  0.81935  1.0000
  I   I325      1.0  0.76492  0.21390  0.08227  1.0000
  I   I326      1.0  0.76805  0.20439  0.45249  1.0000
  I   I327      1.0  0.78451  0.18404  0.76223  1.0000
  I   I328      1.0  0.80508  0.38913  0.98492  1.0000
  I   I329      1.0  0.80754  0.36274  0.32965  1.0000
  I   I330      1.0  0.81115  0.37731  0.65696  1.0000
  I   I331      1.0  0.82361  0.64234  0.18351  1.0000
  I   I332      1.0  0.84839  0.65911  0.50599  1.0000
  I   I333      1.0  0.83247  0.63469  0.83229  1.0000
  I   I334      1.0  0.73977  0.95731  0.24658  1.0000
  I   I335      1.0  0.74108  0.95443  0.56923  1.0000
  I   I336      1.0  0.74423  0.94446  0.90590  1.0000
  I   I337      1.0  0.07360  0.22750  0.94272  1.0000
  I   I338      1.0  0.04374  0.20730  0.25306  1.0000
  I   I339      1.0  0.08028  0.22103  0.59215  1.0000
  I   I340      1.0  0.07071  0.40264  0.11371  1.0000
  I   I341      1.0  0.08422  0.41239  0.44388  1.0000
  I   I342      1.0  0.06696  0.41767  0.78661  1.0000
  I   I343      1.0  0.02017  0.76241  0.12894  1.0000
  I   I344      1.0  0.99018  0.76351  0.49257  1.0000
  I   I345      1.0  0.01676  0.78133  0.82635  1.0000
  I   I346      1.0  0.02722  0.01417  0.05344  1.0000
  I   I347      1.0  0.05147  0.99460  0.41050  1.0000
  I   I348      1.0  0.01577  0.98550  0.72186  1.0000
  I   I349      1.0  0.38629  0.19536  0.03056  1.0000
  I   I350      1.0  0.39766  0.18877  0.33615  1.0000
  I   I351      1.0  0.37319  0.20331  0.69053  1.0000
  I   I352      1.0  0.30859  0.52395  0.17376  1.0000
  I   I353      1.0  0.31199  0.53115  0.51958  1.0000
  I   I354      1.0  0.28309  0.50536  0.84745  1.0000
  I   I355      1.0  0.29825  0.74587  0.10413  1.0000
  I   I356      1.0  0.26171  0.75879  0.40009  1.0000
  I   I357      1.0  0.29760  0.75751  0.81007  1.0000
  I   I358      1.0  0.37664  0.94533  0.83993  1.0000
  I   I359      1.0  0.26845  0.02271  0.28371  1.0000
  I   I360      1.0  0.33792  0.99359  0.55319  1.0000
  I   I361      1.0  0.53116  0.27018  0.08225  1.0000
  I   I362      1.0  0.53176  0.25387  0.39875  1.0000
  I   I363      1.0  0.53132  0.24596  0.73597  1.0000
  I   I364      1.0  0.55478  0.44993  0.01438  1.0000
  I   I365      1.0  0.53740  0.44165  0.35474  1.0000
  I   I366      1.0  0.56427  0.46331  0.68897  1.0000
  I   I367      1.0  0.60591  0.69034  0.89545  1.0000
  I   I368      1.0  0.60930  0.68051  0.20597  1.0000
  I   I369      1.0  0.58212  0.69333  0.59263  1.0000
  I   I370      1.0  0.60455  0.93336  0.07081  1.0000
  I   I371      1.0  0.59669  0.92115  0.40782  1.0000
  I   I372      1.0  0.57969  0.94318  0.72742  1.0000
  I   I373      1.0  0.83147  0.23679  0.99803  1.0000
  I   I374      1.0  0.82976  0.24483  0.36888  1.0000
  I   I375      1.0  0.83210  0.23762  0.67109  1.0000
  I   I376      1.0  0.84122  0.44180  0.87402  1.0000
  I   I377      1.0  0.84611  0.42510  0.24081  1.0000
  I   I378      1.0  0.85077  0.41807  0.54150  1.0000
  I   I379      1.0  0.89213  0.67062  0.09768  1.0000
  I   I380      1.0  0.91954  0.65217  0.39357  1.0000
  I   I381      1.0  0.90363  0.65151  0.74427  1.0000
  I   I382      1.0  0.79896  0.99563  0.14228  1.0000
  I   I383      1.0  0.79434  0.00789  0.48636  1.0000
  I   I384      1.0  0.80514  0.98702  0.83543  1.0000
