data_image0
_chemical_formula_structural       Ti96I384
_chemical_formula_sum              "Ti96 I384"
_cell_length_a       74.6988
_cell_length_b       74.5913
_cell_length_c       36.5409
_cell_angle_alpha    88.7757
_cell_angle_beta     88.7757
_cell_angle_gamma    62.1586

_space_group_name_H-M_alt    "P 1"
_space_group_IT_number       1

loop_
  _space_group_symop_operation_xyz
  'x, y, z'

loop_
  _atom_site_type_symbol
  _atom_site_label
  _atom_site_symmetry_multiplicity
  _atom_site_fract_x
  _atom_site_fract_y
  _atom_site_fract_z
  _atom_site_occupancy
  Ti  Ti1       1.0  0.82702  0.15936  0.88704  1.0000
  Ti  Ti2       1.0  0.46484  0.68812  0.52648  1.0000
  Ti  Ti3       1.0  0.11496  0.00400  0.22075  1.0000
  Ti  Ti4       1.0  0.09688  0.29068  0.04540  1.0000
  Ti  Ti5       1.0  0.21081  0.05828  0.70465  1.0000
  Ti  Ti6       1.0  0.43577  0.36606  0.34147  1.0000
  Ti  Ti7       1.0  0.63013  0.21920  0.83808  1.0000
  Ti  Ti8       1.0  0.34431  0.66373  0.06944  1.0000
  Ti  Ti9       1.0  0.24001  0.37358  0.56332  1.0000
  Ti  Ti10      1.0  0.60637  0.77386  0.27444  1.0000
  Ti  Ti11      1.0  0.31387  0.07137  0.54178  1.0000
  Ti  Ti12      1.0  0.96126  0.13154  0.60768  1.0000
  Ti  Ti13      1.0  0.77927  0.77477  0.45679  1.0000
  Ti  Ti14      1.0  0.05713  0.35585  0.06270  1.0000
  Ti  Ti15      1.0  0.82469  0.54382  0.69557  1.0000
  Ti  Ti16      1.0  0.16411  0.48222  0.39423  1.0000
  Ti  Ti17      1.0  0.06248  0.97134  0.60164  1.0000
  Ti  Ti18      1.0  0.23010  0.22689  0.08726  1.0000
  Ti  Ti19      1.0  0.89604  0.03259  0.87022  1.0000
  Ti  Ti20      1.0  0.17995  0.54649  0.06717  1.0000
  Ti  Ti21      1.0  0.29838  0.71203  0.07374  1.0000
  Ti  Ti22      1.0  0.86419  0.34915  0.62683  1.0000
  Ti  Ti23      1.0  0.01595  0.78538  0.61067  1.0000
  Ti  Ti24      1.0  0.73818  0.28350  0.93240  1.0000
  Ti  Ti25      1.0  0.71542  0.53773  0.38855  1.0000
  Ti  Ti26      1.0  0.81318  0.93937  0.96612  1.0000
  Ti  Ti27      1.0  0.46409  0.46770  0.15070  1.0000
  Ti  Ti28      1.0  0.41551  0.11068  0.72756  1.0000
  Ti  Ti29      1.0  0.34015  0.87829  0.46829  1.0000
  Ti  Ti30      1.0  0.44173  0.82912  0.91005  1.0000
  Ti  Ti31      1.0  0.37950  0.63691  0.37175  1.0000
  Ti  Ti32      1.0  0.54529  0.74660  0.03209  1.0000
  Ti  Ti33      1.0  0.50081  0.47910  0.34736  1.0000
  Ti  Ti34      1.0  0.71887  0.58071  0.89172  1.0000
  Ti  Ti35      1.0  0.80774  0.71071  0.13307  1.0000
  Ti  Ti36      1.0  0.45861  0.25972  0.57140  1.0000
  Ti  Ti37      1.0  0.87317  0.65818  0.66349  1.0000
  Ti  Ti38      1.0  0.26552  0.33042  0.98183  1.0000
  Ti  Ti39      1.0  0.86658  0.53303  0.95850  1.0000
  Ti  Ti40      1.0  0.58482  0.72553  0.29111  1.0000
  Ti  Ti41      1.0  0.90178  0.46057  0.19577  1.0000
  Ti  Ti42      1.0  0.02323  0.49990  0.21750  1.0000
  Ti  Ti43      1.0  0.95394  0.90682  0.80233  1.0000
  Ti  Ti44      1.0  0.93471  0.40432  0.22667  1.0000
  Ti  Ti45      1.0  0.38315  0.18171  0.23786  1.0000
  Ti  Ti46      1.0  0.66075  0.00558  0.08001  1.0000
  Ti  Ti47      1.0  0.13388  0.92341  0.83825  1.0000
  Ti  Ti48      1.0  0.05672  0.06732  0.82821  1.0000
  Ti  Ti49      1.0  0.99208  0.90533  0.73167  1.0000
  Ti  Ti50      1.0  0.05912  0.13161  0.51731  1.0000
  Ti  Ti51      1.0  0.43388  0.67170  0.52755  1.0000
  Ti  Ti52      1.0  0.69329  0.47860  0.73761  1.0000
  Ti  Ti53      1.0  0.16920  0.81468  0.54221  1.0000
  Ti  Ti54      1.0  0.53334  0.91848  0.37172  1.0000
  Ti  Ti55      1.0  0.56535  0.76428  0.07577  1.0000
  Ti  Ti56      1.0  0.54187  0.90348  0.17070  1.0000
  Ti  Ti57      1.0  0.18820  0.40180  0.55345  1.0000
  Ti  Ti58      1.0  0.33691  0.82561  0.76476  1.0000
  Ti  Ti59      1.0  0.45550  0.52864  0.92510  1.0000
  Ti  Ti60      1.0  0.96693  0.09811  0.55467  1.0000
  Ti  Ti61      1.0  0.76204  0.74835  0.98877  1.0000
  Ti  Ti62      1.0  0.84205  0.75426  0.48908  1.0000
  Ti  Ti63      1.0  0.17581  0.50847  0.03741  1.0000
  Ti  Ti64      1.0  0.26534  0.18027  0.13245  1.0000
  Ti  Ti65      1.0  0.17019  0.78644  0.94552  1.0000
  Ti  Ti66      1.0  0.28111  0.36756  0.31741  1.0000
  Ti  Ti67      1.0  0.16528  0.22396  0.37984  1.0000
  Ti  Ti68      1.0  0.47771  0.18805  0.25320  1.0000
  Ti  Ti69      1.0  0.84419  0.94783  0.01206  1.0000
  Ti  Ti70      1.0  0.14255  0.20331  0.32964  1.0000
  Ti  Ti71      1.0  0.83299  0.82395  0.16324  1.0000
  Ti  Ti72      1.0  0.17811  0.92267  0.77229  1.0000
  Ti  Ti73      1.0  0.49732  0.48276  0.10200  1.0000
  Ti  Ti74      1.0  0.66945  0.53035  0.41886  1.0000
  Ti  Ti75      1.0  0.40765  0.15457  0.86451  1.0000
  Ti  Ti76      1.0  0.38591  0.11295  0.67518  1.0000
  Ti  Ti77      1.0  0.81026  0.54204  0.61368  1.0000
  Ti  Ti78      1.0  0.31362  0.84216  0.51908  1.0000
  Ti  Ti79      1.0  0.33083  0.71044  0.81647  1.0000
  Ti  Ti80      1.0  0.26717  0.03610  0.06351  1.0000
  Ti  Ti81      1.0  0.77389  0.64977  0.85324  1.0000
  Ti  Ti82      1.0  0.81861  0.38678  0.30169  1.0000
  Ti  Ti83      1.0  0.01803  0.42101  0.80950  1.0000
  Ti  Ti84      1.0  0.49056  0.21270  0.58748  1.0000
  Ti  Ti85      1.0  0.89478  0.61226  0.65692  1.0000
  Ti  Ti86      1.0  0.64632  0.21052  0.93042  1.0000
  Ti  Ti87      1.0  0.39010  0.16965  0.16384  1.0000
  Ti  Ti88      1.0  0.64863  0.94514  0.32263  1.0000
  Ti  Ti89      1.0  0.33484  0.44988  0.13333  1.0000
  Ti  Ti90      1.0  0.06633  0.45118  0.15677  1.0000
  Ti  Ti91      1.0  0.22757  0.78300  0.20480  1.0000
  Ti  Ti92      1.0  0.84452  0.07996  0.64249  1.0000
  Ti  Ti93      1.0  0.71055  0.33001  0.54222  1.0000
  Ti  Ti94      1.0  0.04229  0.07314  0.90253  1.0000
  Ti  Ti95      1.0  0.91804  0.41101  0.78313  1.0000
  Ti  Ti96      1.0  0.86221  0.33119  0.73001  1.0000
  I   I1        1.0  0.15412  0.94724  0.83336  1.0000
  I   I2        1.0  0.49097  0.64892  0.51887  1.0000
  I   I3        1.0  0.00004  0.88239  0.79495  1.0000
  I   I4        1.0  0.20304  0.78011  0.56520  1.0000
  I   I5        1.0  0.42255  0.38997  0.39246  1.0000
  I   I6        1.0  0.50629  0.94331  0.31995  1.0000
  I   I7        1.0  0.37653  0.63914  0.09859  1.0000
  I   I8        1.0  0.57399  0.89925  0.12836  1.0000
  I   I9        1.0  0.16432  0.43462  0.58713  1.0000
  I   I10       1.0  0.59265  0.80462  0.31404  1.0000
  I   I11       1.0  0.29332  0.08185  0.60255  1.0000
  I   I12       1.0  0.24159  0.02363  0.69556  1.0000
  I   I13       1.0  0.80251  0.76408  0.52439  1.0000
  I   I14       1.0  0.17281  0.47620  0.01710  1.0000
  I   I15       1.0  0.79640  0.52428  0.67290  1.0000
  I   I16       1.0  0.58853  0.79096  0.21727  1.0000
  I   I17       1.0  0.29228  0.36632  0.24854  1.0000
  I   I18       1.0  0.22433  0.23037  0.16155  1.0000
  I   I19       1.0  0.15592  0.55876  0.12427  1.0000
  I   I20       1.0  0.29306  0.10935  0.50468  1.0000
  I   I21       1.0  0.36013  0.66124  0.00149  1.0000
  I   I22       1.0  0.02009  0.75618  0.66419  1.0000
  I   I23       1.0  0.81552  0.83131  0.09552  1.0000
  I   I24       1.0  0.20005  0.21949  0.41303  1.0000
  I   I25       1.0  0.73171  0.54590  0.44008  1.0000
  I   I26       1.0  0.44363  0.13249  0.89142  1.0000
  I   I27       1.0  0.45701  0.50449  0.17264  1.0000
  I   I28       1.0  0.41025  0.13820  0.66681  1.0000
  I   I29       1.0  0.28955  0.82871  0.50022  1.0000
  I   I30       1.0  0.47817  0.81426  0.93388  1.0000
  I   I31       1.0  0.24451  0.04964  0.00575  1.0000
  I   I32       1.0  0.79062  0.62478  0.80215  1.0000
  I   I33       1.0  0.31688  0.68524  0.78478  1.0000
  I   I34       1.0  0.82141  0.67417  0.15600  1.0000
  I   I35       1.0  0.51219  0.18488  0.64530  1.0000
  I   I36       1.0  0.73368  0.54996  0.93538  1.0000
  I   I37       1.0  0.91529  0.57448  0.63174  1.0000
  I   I38       1.0  0.85378  0.55815  0.89840  1.0000
  I   I39       1.0  0.90853  0.62797  0.61113  1.0000
  I   I40       1.0  0.93385  0.42924  0.15754  1.0000
  I   I41       1.0  0.10387  0.44351  0.13272  1.0000
  I   I42       1.0  0.58562  0.70028  0.24966  1.0000
  I   I43       1.0  0.31834  0.80268  0.75897  1.0000
  I   I44       1.0  0.97169  0.39410  0.21470  1.0000
  I   I45       1.0  0.39734  0.14146  0.24226  1.0000
  I   I46       1.0  0.87435  0.43701  0.75816  1.0000
  I   I47       1.0  0.14324  0.90857  0.90729  1.0000
  I   I48       1.0  0.07404  0.07978  0.90147  1.0000
  I   I49       1.0  0.91561  0.92427  0.82005  1.0000
  I   I50       1.0  0.44579  0.68592  0.59009  1.0000
  I   I51       1.0  0.48893  0.69077  0.57825  1.0000
  I   I52       1.0  0.25617  0.00786  0.08316  1.0000
  I   I53       1.0  0.16797  0.83303  0.47989  1.0000
  I   I54       1.0  0.56072  0.92813  0.37305  1.0000
  I   I55       1.0  0.59275  0.23878  0.85696  1.0000
  I   I56       1.0  0.33154  0.63812  0.04071  1.0000
  I   I57       1.0  0.90644  0.45003  0.79380  1.0000
  I   I58       1.0  0.64349  0.76275  0.28695  1.0000
  I   I59       1.0  0.45056  0.53059  0.85262  1.0000
  I   I60       1.0  0.95478  0.06862  0.57187  1.0000
  I   I61       1.0  0.74638  0.81255  0.47018  1.0000
  I   I62       1.0  0.87016  0.74350  0.43989  1.0000
  I   I63       1.0  0.17824  0.49183  0.11046  1.0000
  I   I64       1.0  0.14582  0.48687  0.33020  1.0000
  I   I65       1.0  0.17166  0.77153  0.87449  1.0000
  I   I66       1.0  0.26641  0.33953  0.31426  1.0000
  I   I67       1.0  0.87674  0.01857  0.91671  1.0000
  I   I68       1.0  0.21269  0.54823  0.08627  1.0000
  I   I69       1.0  0.87618  0.93702  0.96819  1.0000
  I   I70       1.0  0.14586  0.26069  0.41373  1.0000
  I   I71       1.0  0.03445  0.80308  0.62957  1.0000
  I   I72       1.0  0.13465  0.89717  0.79581  1.0000
  I   I73       1.0  0.49596  0.44376  0.10485  1.0000
  I   I74       1.0  0.78537  0.95863  0.92026  1.0000
  I   I75       1.0  0.79283  0.91750  0.99278  1.0000
  I   I76       1.0  0.81822  0.52285  0.55504  1.0000
  I   I77       1.0  0.84332  0.56500  0.71442  1.0000
  I   I78       1.0  0.80344  0.18532  0.92816  1.0000
  I   I79       1.0  0.49293  0.48076  0.41673  1.0000
  I   I80       1.0  0.37881  0.62876  0.30111  1.0000
  I   I81       1.0  0.51443  0.77742  0.01026  1.0000
  I   I82       1.0  0.84308  0.39471  0.24682  1.0000
  I   I83       1.0  0.99893  0.40630  0.85480  1.0000
  I   I84       1.0  0.48199  0.18623  0.56263  1.0000
  I   I85       1.0  0.85916  0.63044  0.61776  1.0000
  I   I86       1.0  0.30845  0.34858  0.36131  1.0000
  I   I87       1.0  0.84128  0.54306  0.01395  1.0000
  I   I88       1.0  0.61301  0.71180  0.33913  1.0000
  I   I89       1.0  0.86760  0.46049  0.16799  1.0000
  I   I90       1.0  0.09270  0.43343  0.21105  1.0000
  I   I91       1.0  0.21033  0.78298  0.14320  1.0000
  I   I92       1.0  0.85122  0.04169  0.65731  1.0000
  I   I93       1.0  0.94995  0.36654  0.19430  1.0000
  I   I94       1.0  0.05813  0.03886  0.94315  1.0000
  I   I95       1.0  0.62880  0.01478  0.03487  1.0000
  I   I96       1.0  0.87933  0.35315  0.69489  1.0000
  I   I97       1.0  0.09441  0.04729  0.19685  1.0000
  I   I98       1.0  0.81440  0.13245  0.86637  1.0000
  I   I99       1.0  0.40138  0.66772  0.53491  1.0000
  I   I100      1.0  0.09537  0.26628  0.99379  1.0000
  I   I101      1.0  0.61209  0.96024  0.29280  1.0000
  I   I102      1.0  0.19978  0.06030  0.77682  1.0000
  I   I103      1.0  0.62205  0.25244  0.92278  1.0000
  I   I104      1.0  0.53617  0.73889  0.10737  1.0000
  I   I105      1.0  0.25271  0.33924  0.52297  1.0000
  I   I106      1.0  0.96858  0.14012  0.52176  1.0000
  I   I107      1.0  0.61529  0.72910  0.25050  1.0000
  I   I108      1.0  0.97392  0.14252  0.66383  1.0000
  I   I109      1.0  0.84399  0.50690  0.72255  1.0000
  I   I110      1.0  0.81141  0.78359  0.43688  1.0000
  I   I111      1.0  0.21142  0.50484  0.07406  1.0000
  I   I112      1.0  0.27455  0.20699  0.08665  1.0000
  I   I113      1.0  0.15765  0.82552  0.96462  1.0000
  I   I114      1.0  0.03278  0.99798  0.64043  1.0000
  I   I115      1.0  0.14391  0.20417  0.40842  1.0000
  I   I116      1.0  0.19229  0.18293  0.34968  1.0000
  I   I117      1.0  0.45135  0.22766  0.25699  1.0000
  I   I118      1.0  0.87995  0.31294  0.60601  1.0000
  I   I119      1.0  0.11166  0.24232  0.35166  1.0000
  I   I120      1.0  0.20295  0.89819  0.82643  1.0000
  I   I121      1.0  0.50094  0.51611  0.07694  1.0000
  I   I122      1.0  0.74195  0.50883  0.35243  1.0000
  I   I123      1.0  0.37822  0.14947  0.84025  1.0000
  I   I124      1.0  0.44331  0.85478  0.86405  1.0000
  I   I125      1.0  0.43319  0.12280  0.78712  1.0000
  I   I126      1.0  0.33580  0.81359  0.55914  1.0000
  I   I127      1.0  0.49189  0.45061  0.32671  1.0000
  I   I128      1.0  0.06387  0.32727  0.00270  1.0000
  I   I129      1.0  0.79883  0.62547  0.91028  1.0000
  I   I130      1.0  0.47455  0.27570  0.61325  1.0000
  I   I131      1.0  0.80811  0.36581  0.34395  1.0000
  I   I132      1.0  0.78208  0.72993  0.18502  1.0000
  I   I133      1.0  0.90154  0.52710  0.97964  1.0000
  I   I134      1.0  0.26751  0.36378  0.98455  1.0000
  I   I135      1.0  0.25277  0.40339  0.33877  1.0000
  I   I136      1.0  0.03807  0.52006  0.25188  1.0000
  I   I137      1.0  0.66221  0.48074  0.77107  1.0000
  I   I138      1.0  0.31037  0.46598  0.18990  1.0000
  I   I139      1.0  0.20224  0.80953  0.25515  1.0000
  I   I140      1.0  0.81441  0.09552  0.59166  1.0000
  I   I141      1.0  0.67970  0.34342  0.49868  1.0000
  I   I142      1.0  0.02749  0.10516  0.83871  1.0000
  I   I143      1.0  0.10066  0.99734  0.16528  1.0000
  I   I144      1.0  0.84821  0.32416  0.79187  1.0000
  I   I145      1.0  0.85634  0.13777  0.93502  1.0000
  I   I146      1.0  0.47688  0.70576  0.47236  1.0000
  I   I147      1.0  0.14075  0.01009  0.16938  1.0000
  I   I148      1.0  0.71907  0.47499  0.79303  1.0000
  I   I149      1.0  0.17507  0.06373  0.67742  1.0000
  I   I150      1.0  0.46065  0.37869  0.30843  1.0000
  I   I151      1.0  0.54179  0.79907  0.10115  1.0000
  I   I152      1.0  0.33361  0.70469  0.09188  1.0000
  I   I153      1.0  0.21705  0.40857  0.51527  1.0000
  I   I154      1.0  0.03160  0.88635  0.73988  1.0000
  I   I155      1.0  0.30869  0.04134  0.51095  1.0000
  I   I156      1.0  0.98219  0.08396  0.49005  1.0000
  I   I157      1.0  0.79123  0.57405  0.71623  1.0000
  I   I158      1.0  0.14110  0.53965  0.04533  1.0000
  I   I159      1.0  0.77743  0.70985  0.96655  1.0000
  I   I160      1.0  0.23483  0.18733  0.07993  1.0000
  I   I161      1.0  0.04736  0.97066  0.54111  1.0000
  I   I162      1.0  0.25621  0.16774  0.19404  1.0000
  I   I163      1.0  0.87339  0.04971  0.81630  1.0000
  I   I164      1.0  0.50937  0.19453  0.23741  1.0000
  I   I165      1.0  0.26533  0.70477  0.05666  1.0000
  I   I166      1.0  0.89159  0.29247  0.72037  1.0000
  I   I167      1.0  0.99321  0.81376  0.56388  1.0000
  I   I168      1.0  0.75783  0.24771  0.89941  1.0000
  I   I169      1.0  0.71209  0.50614  0.43372  1.0000
  I   I170      1.0  0.67599  0.49410  0.39480  1.0000
  I   I171      1.0  0.47751  0.44710  0.21473  1.0000
  I   I172      1.0  0.37070  0.14242  0.73415  1.0000
  I   I173      1.0  0.33261  0.84361  0.45464  1.0000
  I   I174      1.0  0.44086  0.79873  0.87560  1.0000
  I   I175      1.0  0.40685  0.60105  0.38995  1.0000
  I   I176      1.0  0.54631  0.71331  0.00044  1.0000
  I   I177      1.0  0.30107  0.74594  0.80879  1.0000
  I   I178      1.0  0.81762  0.41859  0.34006  1.0000
  I   I179      1.0  0.05930  0.40162  0.81442  1.0000
  I   I180      1.0  0.44615  0.23315  0.55921  1.0000
  I   I181      1.0  0.86989  0.60738  0.70524  1.0000
  I   I182      1.0  0.66223  0.22208  0.87046  1.0000
  I   I183      1.0  0.35949  0.20936  0.18840  1.0000
  I   I184      1.0  0.64371  0.94371  0.39049  1.0000
  I   I185      1.0  0.36885  0.45216  0.13086  1.0000
  I   I186      1.0  0.00883  0.49728  0.28536  1.0000
  I   I187      1.0  0.83356  0.11312  0.68225  1.0000
  I   I188      1.0  0.92115  0.39616  0.28504  1.0000
  I   I189      1.0  0.38828  0.20032  0.29524  1.0000
  I   I190      1.0  0.64976  0.02467  0.14910  1.0000
  I   I191      1.0  0.02049  0.14833  0.49811  1.0000
  I   I192      1.0  0.08301  0.02055  0.26957  1.0000
  I   I193      1.0  0.32362  0.90172  0.40374  1.0000
  I   I194      1.0  0.06736  0.13332  0.58318  1.0000
  I   I195      1.0  0.13543  0.96898  0.25325  1.0000
  I   I196      1.0  0.12817  0.27577  0.08361  1.0000
  I   I197      1.0  0.32300  0.85771  0.72367  1.0000
  I   I198      1.0  0.45780  0.32467  0.36238  1.0000
  I   I199      1.0  0.58390  0.72327  0.03616  1.0000
  I   I200      1.0  0.51457  0.93377  0.20385  1.0000
  I   I201      1.0  0.27437  0.35022  0.59890  1.0000
  I   I202      1.0  0.49009  0.52559  0.93475  1.0000
  I   I203      1.0  0.82976  0.96706  0.94002  1.0000
  I   I204      1.0  0.92175  0.15593  0.60514  1.0000
  I   I205      1.0  0.84533  0.71857  0.47703  1.0000
  I   I206      1.0  0.01821  0.37079  0.04796  1.0000
  I   I207      1.0  0.76956  0.56202  0.62685  1.0000
  I   I208      1.0  0.18688  0.50192  0.38601  1.0000
  I   I209      1.0  0.06408  0.94465  0.64844  1.0000
  I   I210      1.0  0.34732  0.70055  0.74180  1.0000
  I   I211      1.0  0.15129  0.17638  0.27863  1.0000
  I   I212      1.0  0.16206  0.58268  0.03306  1.0000
  I   I213      1.0  0.84960  0.96552  0.06713  1.0000
  I   I214      1.0  0.87796  0.36850  0.58718  1.0000
  I   I215      1.0  0.04041  0.76151  0.56085  1.0000
  I   I216      1.0  0.70285  0.31725  0.61207  1.0000
  I   I217      1.0  0.71323  0.56751  0.34892  1.0000
  I   I218      1.0  0.40437  0.18658  0.83034  1.0000
  I   I219      1.0  0.45749  0.49177  0.08629  1.0000
  I   I220      1.0  0.80825  0.57796  0.61244  1.0000
  I   I221      1.0  0.32427  0.90990  0.50917  1.0000
  I   I222      1.0  0.35707  0.14073  0.63032  1.0000
  I   I223      1.0  0.40135  0.65122  0.39373  1.0000
  I   I224      1.0  0.55770  0.77645  0.99158  1.0000
  I   I225      1.0  0.48502  0.51265  0.31299  1.0000
  I   I226      1.0  0.85447  0.35096  0.31551  1.0000
  I   I227      1.0  0.78740  0.72934  0.06692  1.0000
  I   I228      1.0  0.42769  0.29174  0.55309  1.0000
  I   I229      1.0  0.10125  0.95989  0.59378  1.0000
  I   I230      1.0  0.22600  0.34980  0.99579  1.0000
  I   I231      1.0  0.86748  0.49943  0.94412  1.0000
  I   I232      1.0  0.04829  0.37171  0.13162  1.0000
  I   I233      1.0  0.90795  0.49248  0.17046  1.0000
  I   I234      1.0  0.04216  0.45773  0.22093  1.0000
  I   I235      1.0  0.95815  0.93694  0.76847  1.0000
  I   I236      1.0  0.73779  0.33709  0.52216  1.0000
  I   I237      1.0  0.25507  0.79402  0.18694  1.0000
  I   I238      1.0  0.94418  0.41352  0.73561  1.0000
  I   I239      1.0  0.83384  0.33750  0.68437  1.0000
  I   I240      1.0  0.09473  0.03757  0.82237  1.0000
  I   I241      1.0  0.82613  0.18131  0.82730  1.0000
  I   I242      1.0  0.43759  0.67100  0.45773  1.0000
  I   I243      1.0  0.67133  0.96789  0.09397  1.0000
  I   I244      1.0  0.66176  0.97077  0.31600  1.0000
  I   I245      1.0  0.13437  0.81070  0.54196  1.0000
  I   I246      1.0  0.40476  0.36610  0.30149  1.0000
  I   I247      1.0  0.63253  0.18865  0.87713  1.0000
  I   I248      1.0  0.30217  0.72381  0.00765  1.0000
  I   I249      1.0  0.22844  0.40962  0.60207  1.0000
  I   I250      1.0  0.42989  0.56457  0.95302  1.0000
  I   I251      1.0  0.34466  0.08169  0.53588  1.0000
  I   I252      1.0  0.99891  0.10324  0.57411  1.0000
  I   I253      1.0  0.76593  0.77636  0.39049  1.0000
  I   I254      1.0  0.06212  0.38417  0.02542  1.0000
  I   I255      1.0  0.73005  0.75472  0.01931  1.0000
  I   I256      1.0  0.18220  0.76092  0.99975  1.0000
  I   I257      1.0  0.90872  0.63704  0.71244  1.0000
  I   I258      1.0  0.24171  0.25457  0.09472  1.0000
  I   I259      1.0  0.15276  0.23349  0.30964  1.0000
  I   I260      1.0  0.46780  0.17547  0.19132  1.0000
  I   I261      1.0  0.27972  0.74391  0.11316  1.0000
  I   I262      1.0  0.83265  0.35962  0.58486  1.0000
  I   I263      1.0  0.87017  0.81206  0.16722  1.0000
  I   I264      1.0  0.46458  0.23248  0.63743  1.0000
  I   I265      1.0  0.67534  0.56232  0.40535  1.0000
  I   I266      1.0  0.79743  0.96498  0.01875  1.0000
  I   I267      1.0  0.51913  0.47741  0.16326  1.0000
  I   I268      1.0  0.40358  0.08598  0.76893  1.0000
  I   I269      1.0  0.28201  0.88273  0.52705  1.0000
  I   I270      1.0  0.41578  0.07749  0.65818  1.0000
  I   I271      1.0  0.35158  0.66265  0.41464  1.0000
  I   I272      1.0  0.78573  0.67727  0.85418  1.0000
  I   I273      1.0  0.54141  0.47179  0.34785  1.0000
  I   I274      1.0  0.71835  0.60964  0.93676  1.0000
  I   I275      1.0  0.83938  0.71564  0.13655  1.0000
  I   I276      1.0  0.52682  0.19551  0.54937  1.0000
  I   I277      1.0  0.79619  0.39150  0.24657  1.0000
  I   I278      1.0  0.30296  0.29933  0.98432  1.0000
  I   I279      1.0  0.34928  0.18366  0.26537  1.0000
  I   I280      1.0  0.71180  0.44299  0.71298  1.0000
  I   I281      1.0  0.93336  0.44067  0.25367  1.0000
  I   I282      1.0  0.04549  0.49231  0.15193  1.0000
  I   I283      1.0  0.96951  0.91358  0.86305  1.0000
  I   I284      1.0  0.70333  0.30033  0.90037  1.0000
  I   I285      1.0  0.42125  0.13206  0.16680  1.0000
  I   I286      1.0  0.91832  0.37527  0.76027  1.0000
  I   I287      1.0  0.09478  0.94741  0.84637  1.0000
  I   I288      1.0  0.05652  0.06886  0.75600  1.0000
  I   I289      1.0  0.97884  0.88515  0.68429  1.0000
  I   I290      1.0  0.07357  0.09313  0.50916  1.0000
  I   I291      1.0  0.42137  0.71626  0.52029  1.0000
  I   I292      1.0  0.69875  0.50580  0.69892  1.0000
  I   I293      1.0  0.16546  0.84373  0.58467  1.0000
  I   I294      1.0  0.54744  0.88010  0.36840  1.0000
  I   I295      1.0  0.64437  0.19404  0.78348  1.0000
  I   I296      1.0  0.52503  0.88585  0.13977  1.0000
  I   I297      1.0  0.21000  0.36948  0.60472  1.0000
  I   I298      1.0  0.36950  0.78992  0.77277  1.0000
  I   I299      1.0  0.13329  0.48937  0.43606  1.0000
  I   I300      1.0  0.71905  0.29270  0.52787  1.0000
  I   I301      1.0  0.74428  0.76476  0.92893  1.0000
  I   I302      1.0  0.77264  0.74274  0.47112  1.0000
  I   I303      1.0  0.58855  0.76076  0.32917  1.0000
  I   I304      1.0  0.21422  0.23854  0.02469  1.0000
  I   I305      1.0  0.18311  0.44367  0.39579  1.0000
  I   I306      1.0  0.62518  0.24953  0.78753  1.0000
  I   I307      1.0  0.89964  0.05191  0.92593  1.0000
  I   I308      1.0  0.19129  0.52765  0.99650  1.0000
  I   I309      1.0  0.31547  0.67847  0.12684  1.0000
  I   I310      1.0  0.95443  0.87155  0.81747  1.0000
  I   I311      1.0  0.80866  0.85274  0.20386  1.0000
  I   I312      1.0  0.19788  0.88901  0.72508  1.0000
  I   I313      1.0  0.52570  0.45976  0.05576  1.0000
  I   I314      1.0  0.65356  0.53822  0.48586  1.0000
  I   I315      1.0  0.38922  0.16050  0.92898  1.0000
  I   I316      1.0  0.36445  0.08908  0.69419  1.0000
  I   I317      1.0  0.45133  0.08093  0.72618  1.0000
  I   I318      1.0  0.33998  0.85861  0.54854  1.0000
  I   I319      1.0  0.37000  0.68786  0.83294  1.0000
  I   I320      1.0  0.06898  0.29728  0.09559  1.0000
  I   I321      1.0  0.59278  0.74438  0.12340  1.0000
  I   I322      1.0  0.68035  0.59550  0.89401  1.0000
  I   I323      1.0  0.00548  0.45645  0.83480  1.0000
  I   I324      1.0  0.48518  0.25307  0.51844  1.0000
  I   I325      1.0  0.87392  0.68407  0.61492  1.0000
  I   I326      1.0  0.61790  0.20732  0.97319  1.0000
  I   I327      1.0  0.42166  0.16837  0.21107  1.0000
  I   I328      1.0  0.55592  0.73568  0.33624  1.0000
  I   I329      1.0  0.31739  0.47989  0.08652  1.0000
  I   I330      1.0  0.06615  0.42371  0.11345  1.0000
  I   I331      1.0  0.36531  0.17285  0.11194  1.0000
  I   I332      1.0  0.33606  0.83175  0.83414  1.0000
  I   I333      1.0  0.89151  0.48440  0.24572  1.0000
  I   I334      1.0  0.01253  0.09767  0.94371  1.0000
  I   I335      1.0  0.68244  0.00396  0.02035  1.0000
  I   I336      1.0  0.88332  0.33928  0.77880  1.0000
  I   I337      1.0  0.98380  0.93595  0.68217  1.0000
  I   I338      1.0  0.08898  0.13485  0.49098  1.0000
  I   I339      1.0  0.45969  0.63451  0.54523  1.0000
  I   I340      1.0  0.30520  0.01963  0.05463  1.0000
  I   I341      1.0  0.21667  0.08930  0.69937  1.0000
  I   I342      1.0  0.51140  0.94108  0.42561  1.0000
  I   I343      1.0  0.59070  0.78139  0.07356  1.0000
  I   I344      1.0  0.56326  0.87602  0.22505  1.0000
  I   I345      1.0  0.16201  0.39183  0.53175  1.0000
  I   I346      1.0  0.11440  0.19309  0.34324  1.0000
  I   I347      1.0  0.46321  0.49656  0.96353  1.0000
  I   I348      1.0  0.93476  0.11337  0.50866  1.0000
  I   I349      1.0  0.78356  0.76605  0.97415  1.0000
  I   I350      1.0  0.84966  0.76911  0.54678  1.0000
  I   I351      1.0  0.09695  0.33307  0.06027  1.0000
  I   I352      1.0  0.29906  0.14889  0.14810  1.0000
  I   I353      1.0  0.13469  0.78528  0.94943  1.0000
  I   I354      1.0  0.67799  0.19590  0.96441  1.0000
  I   I355      1.0  0.93128  0.01773  0.84034  1.0000
  I   I356      1.0  0.47985  0.16562  0.31088  1.0000
  I   I357      1.0  0.83572  0.91151  0.91545  1.0000
  I   I358      1.0  0.72231  0.29693  0.99921  1.0000
  I   I359      1.0  0.83064  0.79313  0.19651  1.0000
  I   I360      1.0  0.19478  0.94067  0.72652  1.0000
  I   I361      1.0  0.43122  0.46669  0.13024  1.0000
  I   I362      1.0  0.62867  0.55160  0.38530  1.0000
  I   I363      1.0  0.86629  0.90900  0.03206  1.0000
  I   I364      1.0  0.42036  0.82668  0.96525  1.0000
  I   I365      1.0  0.85224  0.52295  0.63943  1.0000
  I   I366      1.0  0.37590  0.86868  0.44393  1.0000
  I   I367      1.0  0.33337  0.70621  0.88839  1.0000
  I   I368      1.0  0.25540  0.06558  0.11105  1.0000
  I   I369      1.0  0.73651  0.66203  0.83304  1.0000
  I   I370      1.0  0.72852  0.58400  0.82309  1.0000
  I   I371      1.0  0.00427  0.42662  0.74594  1.0000
  I   I372      1.0  0.75913  0.29354  0.88707  1.0000
  I   I373      1.0  0.85134  0.67792  0.72860  1.0000
  I   I374      1.0  0.25521  0.30006  0.95568  1.0000
  I   I375      1.0  0.41018  0.18376  0.10887  1.0000
  I   I376      1.0  0.67204  0.90722  0.30612  1.0000
  I   I377      1.0  0.33442  0.41695  0.10904  1.0000
  I   I378      1.0  0.98825  0.51231  0.19089  1.0000
  I   I379      1.0  0.23958  0.74625  0.23182  1.0000
  I   I380      1.0  0.87183  0.07365  0.59184  1.0000
  I   I381      1.0  0.95985  0.10079  0.63300  1.0000
  I   I382      1.0  0.03754  0.04407  0.84652  1.0000
  I   I383      1.0  0.94565  0.38250  0.82741  1.0000
  I   I384      1.0  0.14250  0.93167  0.74981  1.0000
