data_image0
_chemical_formula_structural       Ti96I384
_chemical_formula_sum              "Ti96 I384"
_cell_length_a       70.4747
_cell_length_b       70.2131
_cell_length_c       34.3795
_cell_angle_alpha    88.7757
_cell_angle_beta     88.7757
_cell_angle_gamma    62.1586

_space_group_name_H-M_alt    "P 1"
_space_group_IT_number       1

loop_
  _space_group_symop_operation_xyz
  'x, y, z'

loop_
  _atom_site_type_symbol
  _atom_site_label
  _atom_site_symmetry_multiplicity
  _atom_site_fract_x
  _atom_site_fract_y
  _atom_site_fract_z
  _atom_site_occupancy
  Ti  Ti1       1.0  0.07904  0.94745  0.31473  1.0000
  Ti  Ti2       1.0  0.98041  0.09219  0.15647  1.0000
  Ti  Ti3       1.0  0.39183  0.04997  0.24699  1.0000
  Ti  Ti4       1.0  0.01620  0.38217  0.61213  1.0000
  Ti  Ti5       1.0  0.41392  0.54199  0.16875  1.0000
  Ti  Ti6       1.0  0.77052  0.93587  0.10062  1.0000
  Ti  Ti7       1.0  0.78737  0.78827  0.60249  1.0000
  Ti  Ti8       1.0  0.27026  0.52339  0.49474  1.0000
  Ti  Ti9       1.0  0.41926  0.11013  0.44164  1.0000
  Ti  Ti10      1.0  0.42265  0.46401  0.81247  1.0000
  Ti  Ti11      1.0  0.18018  0.33775  0.86078  1.0000
  Ti  Ti12      1.0  0.81902  0.74430  0.90813  1.0000
  Ti  Ti13      1.0  0.79212  0.34119  0.65127  1.0000
  Ti  Ti14      1.0  0.86618  0.10113  0.77551  1.0000
  Ti  Ti15      1.0  0.59614  0.74312  0.89691  1.0000
  Ti  Ti16      1.0  0.36036  0.50067  0.86691  1.0000
  Ti  Ti17      1.0  0.28880  0.84680  0.30541  1.0000
  Ti  Ti18      1.0  0.47680  0.88562  0.55989  1.0000
  Ti  Ti19      1.0  0.45357  0.59732  0.45566  1.0000
  Ti  Ti20      1.0  0.65914  0.12021  0.73267  1.0000
  Ti  Ti21      1.0  0.21593  0.52454  0.56957  1.0000
  Ti  Ti22      1.0  0.57644  0.87073  0.40244  1.0000
  Ti  Ti23      1.0  0.23040  0.18219  0.30588  1.0000
  Ti  Ti24      1.0  0.10855  0.79822  0.01761  1.0000
  Ti  Ti25      1.0  0.38267  0.25567  0.61380  1.0000
  Ti  Ti26      1.0  0.83883  0.97199  0.99119  1.0000
  Ti  Ti27      1.0  0.78393  0.19745  0.33567  1.0000
  Ti  Ti28      1.0  0.42688  0.95309  0.89811  1.0000
  Ti  Ti29      1.0  0.10750  0.76623  0.76416  1.0000
  Ti  Ti30      1.0  0.30370  0.91932  0.69395  1.0000
  Ti  Ti31      1.0  0.94490  0.66727  0.57885  1.0000
  Ti  Ti32      1.0  0.33135  0.89746  0.09988  1.0000
  Ti  Ti33      1.0  0.24421  0.73023  0.19461  1.0000
  Ti  Ti34      1.0  0.63701  0.37308  0.77704  1.0000
  Ti  Ti35      1.0  0.96150  0.43950  0.82894  1.0000
  Ti  Ti36      1.0  0.06233  0.20656  0.92738  1.0000
  Ti  Ti37      1.0  0.24586  0.14611  0.55364  1.0000
  Ti  Ti38      1.0  0.81468  0.25919  0.13433  1.0000
  Ti  Ti39      1.0  0.88218  0.57042  0.20216  1.0000
  Ti  Ti40      1.0  0.65571  0.56313  0.26914  1.0000
  Ti  Ti41      1.0  0.55453  0.15157  0.63670  1.0000
  Ti  Ti42      1.0  0.16210  0.90222  0.79180  1.0000
  Ti  Ti43      1.0  0.05520  0.18484  0.59658  1.0000
  Ti  Ti44      1.0  0.51195  0.11461  0.66610  1.0000
  Ti  Ti45      1.0  0.22281  0.23623  0.10733  1.0000
  Ti  Ti46      1.0  0.50213  0.71044  0.24291  1.0000
  Ti  Ti47      1.0  0.63244  0.28591  0.58499  1.0000
  Ti  Ti48      1.0  0.90532  0.01366  0.19447  1.0000
  Ti  Ti49      1.0  0.09750  0.06723  0.85641  1.0000
  Ti  Ti50      1.0  0.27504  0.36003  0.63823  1.0000
  Ti  Ti51      1.0  0.97259  0.13606  0.12507  1.0000
  Ti  Ti52      1.0  0.58164  0.22482  0.07858  1.0000
  Ti  Ti53      1.0  0.40784  0.70082  0.18154  1.0000
  Ti  Ti54      1.0  0.95662  0.78911  0.58002  1.0000
  Ti  Ti55      1.0  0.74053  0.83598  0.59140  1.0000
  Ti  Ti56      1.0  0.48229  0.30371  0.41493  1.0000
  Ti  Ti57      1.0  0.43179  0.11088  0.34317  1.0000
  Ti  Ti58      1.0  0.70786  0.29678  0.55651  1.0000
  Ti  Ti59      1.0  0.73179  0.20978  0.94970  1.0000
  Ti  Ti60      1.0  0.87072  0.72852  0.94401  1.0000
  Ti  Ti61      1.0  0.62599  0.68574  0.82437  1.0000
  Ti  Ti62      1.0  0.78740  0.36967  0.72872  1.0000
  Ti  Ti63      1.0  0.69112  0.09305  0.37331  1.0000
  Ti  Ti64      1.0  0.43808  0.89109  0.59969  1.0000
  Ti  Ti65      1.0  0.84529  0.78898  0.13252  1.0000
  Ti  Ti66      1.0  0.51216  0.26367  0.84031  1.0000
  Ti  Ti67      1.0  0.73675  0.75749  0.94512  1.0000
  Ti  Ti68      1.0  0.47380  0.55268  0.37793  1.0000
  Ti  Ti69      1.0  0.86805  0.90279  0.91640  1.0000
  Ti  Ti70      1.0  0.67503  0.80308  0.01845  1.0000
  Ti  Ti71      1.0  0.23467  0.13855  0.24905  1.0000
  Ti  Ti72      1.0  0.64013  0.23433  0.58377  1.0000
  Ti  Ti73      1.0  0.73259  0.23507  0.35066  1.0000
  Ti  Ti74      1.0  0.36641  0.21289  0.62595  1.0000
  Ti  Ti75      1.0  0.52328  0.81060  0.98238  1.0000
  Ti  Ti76      1.0  0.24386  0.94198  0.73260  1.0000
  Ti  Ti77      1.0  0.48946  0.01636  0.82169  1.0000
  Ti  Ti78      1.0  0.06121  0.81084  0.70151  1.0000
  Ti  Ti79      1.0  0.60050  0.74407  0.24753  1.0000
  Ti  Ti80      1.0  0.91587  0.32605  0.54313  1.0000
  Ti  Ti81      1.0  0.36649  0.90540  0.16989  1.0000
  Ti  Ti82      1.0  0.38922  0.24257  0.08762  1.0000
  Ti  Ti83      1.0  0.92077  0.43510  0.77461  1.0000
  Ti  Ti84      1.0  0.09205  0.19147  0.02438  1.0000
  Ti  Ti85      1.0  0.23761  0.10828  0.52883  1.0000
  Ti  Ti86      1.0  0.45692  0.27459  0.82137  1.0000
  Ti  Ti87      1.0  0.17780  0.30021  0.07303  1.0000
  Ti  Ti88      1.0  0.59890  0.25801  0.00830  1.0000
  Ti  Ti89      1.0  0.53866  0.20599  0.61580  1.0000
  Ti  Ti90      1.0  0.16878  0.89128  0.89483  1.0000
  Ti  Ti91      1.0  0.26220  0.49721  0.21196  1.0000
  Ti  Ti92      1.0  0.37961  0.62217  0.99098  1.0000
  Ti  Ti93      1.0  0.03236  0.67927  0.13225  1.0000
  Ti  Ti94      1.0  0.89993  0.04182  0.29869  1.0000
  Ti  Ti95      1.0  0.55257  0.54761  0.94364  1.0000
  Ti  Ti96      1.0  0.78818  0.51855  0.91786  1.0000
  I   I1        1.0  0.67086  0.28719  0.56964  1.0000
  I   I2        1.0  0.00250  0.09647  0.08729  1.0000
  I   I3        1.0  0.13769  0.04688  0.87362  1.0000
  I   I4        1.0  0.37032  0.71015  0.15867  1.0000
  I   I5        1.0  0.74657  0.97180  0.06018  1.0000
  I   I6        1.0  0.98205  0.77603  0.52290  1.0000
  I   I7        1.0  0.20940  0.50917  0.50686  1.0000
  I   I8        1.0  0.51570  0.27537  0.37242  1.0000
  I   I9        1.0  0.39993  0.13648  0.29027  1.0000
  I   I10       1.0  0.33049  0.54172  0.87751  1.0000
  I   I11       1.0  0.14160  0.37111  0.83365  1.0000
  I   I12       1.0  0.45623  0.52169  0.17612  1.0000
  I   I13       1.0  0.74788  0.34802  0.64038  1.0000
  I   I14       1.0  0.71739  0.05699  0.34294  1.0000
  I   I15       1.0  0.56483  0.77919  0.88146  1.0000
  I   I16       1.0  0.35603  0.49048  0.80167  1.0000
  I   I17       1.0  0.54315  0.24307  0.88819  1.0000
  I   I18       1.0  0.49287  0.90763  0.59112  1.0000
  I   I19       1.0  0.65956  0.10090  0.79877  1.0000
  I   I20       1.0  0.20796  0.34306  0.81699  1.0000
  I   I21       1.0  0.26069  0.49749  0.56269  1.0000
  I   I22       1.0  0.20392  0.21382  0.35374  1.0000
  I   I23       1.0  0.24503  0.17164  0.22284  1.0000
  I   I24       1.0  0.70983  0.78230  0.06369  1.0000
  I   I25       1.0  0.37371  0.17981  0.57955  1.0000
  I   I26       1.0  0.56111  0.79713  0.01384  1.0000
  I   I27       1.0  0.76397  0.23411  0.38952  1.0000
  I   I28       1.0  0.43506  0.94868  0.82420  1.0000
  I   I29       1.0  0.05517  0.85188  0.67929  1.0000
  I   I30       1.0  0.29327  0.92531  0.62102  1.0000
  I   I31       1.0  0.92625  0.35385  0.56727  1.0000
  I   I32       1.0  0.35975  0.86856  0.15235  1.0000
  I   I33       1.0  0.56369  0.74772  0.22516  1.0000
  I   I34       1.0  0.00117  0.41336  0.82948  1.0000
  I   I35       1.0  0.10987  0.17045  0.08436  1.0000
  I   I36       1.0  0.60523  0.40923  0.79582  1.0000
  I   I37       1.0  0.24690  0.17068  0.61139  1.0000
  I   I38       1.0  0.86709  0.54567  0.18196  1.0000
  I   I39       1.0  0.27020  0.10809  0.58614  1.0000
  I   I40       1.0  0.52972  0.17257  0.58153  1.0000
  I   I41       1.0  0.16878  0.86420  0.83112  1.0000
  I   I42       1.0  0.64842  0.56727  0.34067  1.0000
  I   I43       1.0  0.68436  0.31635  0.49908  1.0000
  I   I44       1.0  0.55170  0.11663  0.68600  1.0000
  I   I45       1.0  0.17967  0.25926  0.09196  1.0000
  I   I46       1.0  0.57979  0.53829  0.00131  1.0000
  I   I47       1.0  0.64254  0.25491  0.50789  1.0000
  I   I48       1.0  0.92390  0.97524  0.16906  1.0000
  I   I49       1.0  0.09322  0.10728  0.85481  1.0000
  I   I50       1.0  0.95116  0.16492  0.17678  1.0000
  I   I51       1.0  0.00896  0.13890  0.14557  1.0000
  I   I52       1.0  0.91147  0.29947  0.59129  1.0000
  I   I53       1.0  0.39917  0.73737  0.21024  1.0000
  I   I54       1.0  0.92337  0.82152  0.55331  1.0000
  I   I55       1.0  0.75789  0.78767  0.56369  1.0000
  I   I56       1.0  0.18021  0.56311  0.56655  1.0000
  I   I57       1.0  0.42207  0.14002  0.50004  1.0000
  I   I58       1.0  0.43484  0.43265  0.76444  1.0000
  I   I59       1.0  0.69972  0.23906  0.98870  1.0000
  I   I60       1.0  0.84879  0.70853  0.96199  1.0000
  I   I61       1.0  0.80755  0.38823  0.76184  1.0000
  I   I62       1.0  0.82850  0.30617  0.63032  1.0000
  I   I63       1.0  0.67186  0.08281  0.42565  1.0000
  I   I64       1.0  0.38889  0.51552  0.84218  1.0000
  I   I65       1.0  0.80919  0.78862  0.13818  1.0000
  I   I66       1.0  0.53083  0.24826  0.76718  1.0000
  I   I67       1.0  0.44306  0.61967  0.52211  1.0000
  I   I68       1.0  0.62414  0.15520  0.74224  1.0000
  I   I69       1.0  0.87076  0.91252  0.83938  1.0000
  I   I70       1.0  0.64031  0.81864  0.96975  1.0000
  I   I71       1.0  0.19426  0.17485  0.28845  1.0000
  I   I72       1.0  0.59981  0.26374  0.58480  1.0000
  I   I73       1.0  0.73269  0.21456  0.28546  1.0000
  I   I74       1.0  0.79737  0.99736  0.00099  1.0000
  I   I75       1.0  0.84316  0.00362  0.95825  1.0000
  I   I76       1.0  0.52353  0.98659  0.84842  1.0000
  I   I77       1.0  0.46090  0.03302  0.88406  1.0000
  I   I78       1.0  0.08271  0.98547  0.29928  1.0000
  I   I79       1.0  0.23207  0.74193  0.11968  1.0000
  I   I80       1.0  0.94526  0.63753  0.62801  1.0000
  I   I81       1.0  0.36386  0.91431  0.08177  1.0000
  I   I82       1.0  0.41947  0.22891  0.14604  1.0000
  I   I83       1.0  0.95403  0.45177  0.75020  1.0000
  I   I84       1.0  0.07218  0.24105  0.90127  1.0000
  I   I85       1.0  0.20540  0.14333  0.56466  1.0000
  I   I86       1.0  0.42853  0.25850  0.84331  1.0000
  I   I87       1.0  0.86029  0.60174  0.25222  1.0000
  I   I88       1.0  0.67458  0.58841  0.26192  1.0000
  I   I89       1.0  0.55994  0.16284  0.71053  1.0000
  I   I90       1.0  0.18668  0.87881  0.96216  1.0000
  I   I91       1.0  0.24648  0.48564  0.15783  1.0000
  I   I92       1.0  0.41735  0.58877  0.98397  1.0000
  I   I93       1.0  0.53412  0.07888  0.70757  1.0000
  I   I94       1.0  0.91070  0.04751  0.21180  1.0000
  I   I95       1.0  0.52799  0.70189  0.30167  1.0000
  I   I96       1.0  0.74767  0.54602  0.93239  1.0000
  I   I97       1.0  0.40877  0.01647  0.19660  1.0000
  I   I98       1.0  0.08550  0.93477  0.38770  1.0000
  I   I99       1.0  0.95968  0.06962  0.17624  1.0000
  I   I100      1.0  0.04459  0.35323  0.65524  1.0000
  I   I101      1.0  0.57055  0.22089  0.15660  1.0000
  I   I102      1.0  0.39974  0.54039  0.23598  1.0000
  I   I103      1.0  0.78060  0.83219  0.63060  1.0000
  I   I104      1.0  0.72958  0.87402  0.61879  1.0000
  I   I105      1.0  0.41088  0.09104  0.37675  1.0000
  I   I106      1.0  0.81783  0.70629  0.88041  1.0000
  I   I107      1.0  0.45910  0.44724  0.84436  1.0000
  I   I108      1.0  0.89299  0.74085  0.98241  1.0000
  I   I109      1.0  0.60606  0.77414  0.92517  1.0000
  I   I110      1.0  0.79461  0.37951  0.65304  1.0000
  I   I111      1.0  0.66139  0.11647  0.32768  1.0000
  I   I112      1.0  0.47521  0.86878  0.62818  1.0000
  I   I113      1.0  0.84291  0.79301  0.05524  1.0000
  I   I114      1.0  0.26113  0.87361  0.35683  1.0000
  I   I115      1.0  0.70125  0.76204  0.97803  1.0000
  I   I116      1.0  0.73082  0.74866  0.87945  1.0000
  I   I117      1.0  0.47582  0.51464  0.38975  1.0000
  I   I118      1.0  0.60195  0.89044  0.39273  1.0000
  I   I119      1.0  0.66744  0.84034  0.04315  1.0000
  I   I120      1.0  0.63639  0.20421  0.55439  1.0000
  I   I121      1.0  0.77164  0.23737  0.29344  1.0000
  I   I122      1.0  0.41796  0.25715  0.58893  1.0000
  I   I123      1.0  0.50888  0.81718  0.91120  1.0000
  I   I124      1.0  0.32172  0.94341  0.69632  1.0000
  I   I125      1.0  0.42005  0.99494  0.90254  1.0000
  I   I126      1.0  0.13888  0.77657  0.75632  1.0000
  I   I127      1.0  0.24160  0.75297  0.25320  1.0000
  I   I128      1.0  0.03720  0.37697  0.54339  1.0000
  I   I129      1.0  0.34137  0.88605  0.02947  1.0000
  I   I130      1.0  0.04460  0.22409  0.00434  1.0000
  I   I131      1.0  0.36634  0.22817  0.03839  1.0000
  I   I132      1.0  0.88331  0.42937  0.76420  1.0000
  I   I133      1.0  0.88561  0.58825  0.13696  1.0000
  I   I134      1.0  0.84663  0.24741  0.18350  1.0000
  I   I135      1.0  0.53038  0.29031  0.81709  1.0000
  I   I136      1.0  0.13046  0.90109  0.92148  1.0000
  I   I137      1.0  0.60862  0.28059  0.05718  1.0000
  I   I138      1.0  0.50165  0.21342  0.65221  1.0000
  I   I139      1.0  0.27450  0.52108  0.16898  1.0000
  I   I140      1.0  0.35159  0.60898  0.98151  1.0000
  I   I141      1.0  0.99290  0.70162  0.15534  1.0000
  I   I142      1.0  0.87432  0.03607  0.34689  1.0000
  I   I143      1.0  0.52267  0.69677  0.17867  1.0000
  I   I144      1.0  0.80305  0.47777  0.93258  1.0000
  I   I145      1.0  0.11625  0.91327  0.28164  1.0000
  I   I146      1.0  0.01594  0.05198  0.17542  1.0000
  I   I147      1.0  0.36515  0.04003  0.29047  1.0000
  I   I148      1.0  0.59535  0.18333  0.06447  1.0000
  I   I149      1.0  0.40184  0.51951  0.12492  1.0000
  I   I150      1.0  0.79426  0.95629  0.09406  1.0000
  I   I151      1.0  0.74295  0.83763  0.51709  1.0000
  I   I152      1.0  0.29527  0.53880  0.50973  1.0000
  I   I153      1.0  0.45126  0.08006  0.29629  1.0000
  I   I154      1.0  0.08468  0.15859  0.64707  1.0000
  I   I155      1.0  0.19263  0.33711  0.92899  1.0000
  I   I156      1.0  0.88445  0.73142  0.87252  1.0000
  I   I157      1.0  0.59132  0.72982  0.96647  1.0000
  I   I158      1.0  0.70424  0.11746  0.40279  1.0000
  I   I159      1.0  0.62426  0.67242  0.89187  1.0000
  I   I160      1.0  0.45409  0.85864  0.53643  1.0000
  I   I161      1.0  0.32023  0.84584  0.34966  1.0000
  I   I162      1.0  0.43980  0.91845  0.53861  1.0000
  I   I163      1.0  0.43119  0.58001  0.41843  1.0000
  I   I164      1.0  0.43999  0.55777  0.32644  1.0000
  I   I165      1.0  0.23146  0.55173  0.51169  1.0000
  I   I166      1.0  0.53559  0.89447  0.38231  1.0000
  I   I167      1.0  0.24216  0.14125  0.33332  1.0000
  I   I168      1.0  0.10134  0.80521  0.08909  1.0000
  I   I169      1.0  0.32459  0.24658  0.60721  1.0000
  I   I170      1.0  0.40840  0.20533  0.63440  1.0000
  I   I171      1.0  0.70255  0.23514  0.38921  1.0000
  I   I172      1.0  0.23244  0.97914  0.76083  1.0000
  I   I173      1.0  0.01923  0.82397  0.70785  1.0000
  I   I174      1.0  0.26540  0.90934  0.68200  1.0000
  I   I175      1.0  0.93691  0.70145  0.61962  1.0000
  I   I176      1.0  0.29454  0.93763  0.09678  1.0000
  I   I177      1.0  0.62484  0.70067  0.27636  1.0000
  I   I178      1.0  0.36375  0.28631  0.08419  1.0000
  I   I179      1.0  0.91905  0.42917  0.70012  1.0000
  I   I180      1.0  0.06917  0.17576  0.87276  1.0000
  I   I181      1.0  0.21206  0.09110  0.53306  1.0000
  I   I182      1.0  0.48080  0.25356  0.88426  1.0000
  I   I183      1.0  0.22129  0.27665  0.12338  1.0000
  I   I184      1.0  0.63110  0.25397  0.96798  1.0000
  I   I185      1.0  0.57955  0.18644  0.58916  1.0000
  I   I186      1.0  0.16001  0.93423  0.75858  1.0000
  I   I187      1.0  0.37294  0.63430  0.06083  1.0000
  I   I188      1.0  0.47700  0.11383  0.69334  1.0000
  I   I189      1.0  0.26102  0.21371  0.13597  1.0000
  I   I190      1.0  0.48514  0.75325  0.22421  1.0000
  I   I191      1.0  0.26828  0.39312  0.68484  1.0000
  I   I192      1.0  0.89256  0.01825  0.11477  1.0000
  I   I193      1.0  0.06689  0.77058  0.75093  1.0000
  I   I194      1.0  0.30076  0.33244  0.68641  1.0000
  I   I195      1.0  0.38358  0.08533  0.21726  1.0000
  I   I196      1.0  0.99005  0.36671  0.60420  1.0000
  I   I197      1.0  0.73361  0.25652  0.53419  1.0000
  I   I198      1.0  0.78132  0.91778  0.16994  1.0000
  I   I199      1.0  0.76474  0.78605  0.67085  1.0000
  I   I200      1.0  0.46073  0.28441  0.39713  1.0000
  I   I201      1.0  0.40527  0.14875  0.39583  1.0000
  I   I202      1.0  0.72686  0.22387  0.87882  1.0000
  I   I203      1.0  0.87127  0.86493  0.89232  1.0000
  I   I204      1.0  0.90488  0.69328  0.95286  1.0000
  I   I205      1.0  0.82805  0.33424  0.70486  1.0000
  I   I206      1.0  0.83438  0.13655  0.76227  1.0000
  I   I207      1.0  0.58217  0.71825  0.85758  1.0000
  I   I208      1.0  0.40440  0.46831  0.89428  1.0000
  I   I209      1.0  0.30459  0.86379  0.25026  1.0000
  I   I210      1.0  0.58455  0.74866  0.32263  1.0000
  I   I211      1.0  0.71886  0.80092  0.94487  1.0000
  I   I212      1.0  0.65486  0.11082  0.65887  1.0000
  I   I213      1.0  0.82633  0.91828  0.93848  1.0000
  I   I214      1.0  0.59240  0.83896  0.35258  1.0000
  I   I215      1.0  0.22821  0.12937  0.18161  1.0000
  I   I216      1.0  0.07117  0.82540  0.98863  1.0000
  I   I217      1.0  0.35727  0.29659  0.60774  1.0000
  I   I218      1.0  0.49807  0.84949  0.00835  1.0000
  I   I219      1.0  0.78401  0.17265  0.28466  1.0000
  I   I220      1.0  0.48017  0.00014  0.75969  1.0000
  I   I221      1.0  0.13372  0.73334  0.72261  1.0000
  I   I222      1.0  0.21172  0.95032  0.68668  1.0000
  I   I223      1.0  0.98150  0.64869  0.53890  1.0000
  I   I224      1.0  0.35148  0.91466  0.24534  1.0000
  I   I225      1.0  0.22820  0.70552  0.21024  1.0000
  I   I226      1.0  0.42541  0.23813  0.05769  1.0000
  I   I227      1.0  0.94859  0.43761  0.90048  1.0000
  I   I228      1.0  0.10349  0.18564  0.93395  1.0000
  I   I229      1.0  0.28054  0.13846  0.51002  1.0000
  I   I230      1.0  0.81899  0.22582  0.09830  1.0000
  I   I231      1.0  0.92223  0.55201  0.22261  1.0000
  I   I232      1.0  0.85990  0.08025  0.83769  1.0000
  I   I233      1.0  0.50145  0.15548  0.64551  1.0000
  I   I234      1.0  0.15330  0.93516  0.88030  1.0000
  I   I235      1.0  0.07282  0.20953  0.58446  1.0000
  I   I236      1.0  0.05793  0.63604  0.14302  1.0000
  I   I237      1.0  0.29056  0.45847  0.24296  1.0000
  I   I238      1.0  0.56884  0.55823  0.88155  1.0000
  I   I239      1.0  0.77770  0.52843  0.84401  1.0000
  I   I240      1.0  0.93186  0.03736  0.33739  1.0000
  I   I241      1.0  0.09576  0.06774  0.77788  1.0000
  I   I242      1.0  0.99833  0.09805  0.22187  1.0000
  I   I243      1.0  0.42516  0.03990  0.28722  1.0000
  I   I244      1.0  0.62433  0.20880  0.04351  1.0000
  I   I245      1.0  0.41320  0.67621  0.24104  1.0000
  I   I246      1.0  0.77097  0.91033  0.04969  1.0000
  I   I247      1.0  0.81543  0.75038  0.63880  1.0000
  I   I248      1.0  0.25983  0.52667  0.41781  1.0000
  I   I249      1.0  0.45813  0.08875  0.45345  1.0000
  I   I250      1.0  0.77223  0.19584  0.96964  1.0000
  I   I251      1.0  0.18344  0.30525  0.81837  1.0000
  I   I252      1.0  0.80541  0.76872  0.84185  1.0000
  I   I253      1.0  0.76618  0.34507  0.75544  1.0000
  I   I254      1.0  0.86806  0.07805  0.71389  1.0000
  I   I255      1.0  0.63154  0.72122  0.83838  1.0000
  I   I256      1.0  0.87645  0.74868  0.11924  1.0000
  I   I257      1.0  0.30946  0.80399  0.32732  1.0000
  I   I258      1.0  0.42011  0.87267  0.63317  1.0000
  I   I259      1.0  0.76426  0.71725  0.96311  1.0000
  I   I260      1.0  0.47102  0.59700  0.37124  1.0000
  I   I261      1.0  0.30424  0.48070  0.49099  1.0000
  I   I262      1.0  0.57662  0.86416  0.47531  1.0000
  I   I263      1.0  0.25992  0.19466  0.31133  1.0000
  I   I264      1.0  0.11886  0.76220  0.99261  1.0000
  I   I265      1.0  0.37857  0.23159  0.56098  1.0000
  I   I266      1.0  0.88582  0.88133  0.98307  1.0000
  I   I267      1.0  0.70664  0.27069  0.31259  1.0000
  I   I268      1.0  0.46033  0.92683  0.93775  1.0000
  I   I269      1.0  0.07716  0.81621  0.76799  1.0000
  I   I270      1.0  0.28428  0.93307  0.77035  1.0000
  I   I271      1.0  0.91058  0.68629  0.54324  1.0000
  I   I272      1.0  0.35569  0.94600  0.17281  1.0000
  I   I273      1.0  0.28533  0.70898  0.19020  1.0000
  I   I274      1.0  0.67096  0.37856  0.76585  1.0000
  I   I275      1.0  0.91557  0.46354  0.83427  1.0000
  I   I276      1.0  0.09292  0.15110  0.00732  1.0000
  I   I277      1.0  0.37135  0.24287  0.16022  1.0000
  I   I278      1.0  0.77246  0.28523  0.13133  1.0000
  I   I279      1.0  0.14806  0.30893  0.02056  1.0000
  I   I280      1.0  0.56895  0.26636  0.09173  1.0000
  I   I281      1.0  0.58626  0.12756  0.59421  1.0000
  I   I282      1.0  0.17912  0.88319  0.72319  1.0000
  I   I283      1.0  0.06685  0.15822  0.53901  1.0000
  I   I284      1.0  0.03020  0.68548  0.05588  1.0000
  I   I285      1.0  0.20692  0.23145  0.17593  1.0000
  I   I286      1.0  0.51925  0.57780  0.97453  1.0000
  I   I287      1.0  0.60797  0.31585  0.53901  1.0000
  I   I288      1.0  0.91853  0.99812  0.27256  1.0000
  I   I289      1.0  0.08299  0.04530  0.89423  1.0000
  I   I290      1.0  0.23844  0.35629  0.66229  1.0000
  I   I291      1.0  0.93922  0.12265  0.11260  1.0000
  I   I292      1.0  0.57570  0.23265  0.00123  1.0000
  I   I293      1.0  0.43956  0.67707  0.12752  1.0000
  I   I294      1.0  0.97369  0.79508  0.64680  1.0000
  I   I295      1.0  0.80809  0.78663  0.53882  1.0000
  I   I296      1.0  0.48264  0.31325  0.48696  1.0000
  I   I297      1.0  0.38629  0.11027  0.47446  1.0000
  I   I298      1.0  0.71492  0.30583  0.62574  1.0000
  I   I299      1.0  0.42238  0.48339  0.74679  1.0000
  I   I300      1.0  0.83131  0.77432  0.93096  1.0000
  I   I301      1.0  0.59930  0.69078  0.76667  1.0000
  I   I302      1.0  0.78359  0.34399  0.57404  1.0000
  I   I303      1.0  0.68207  0.52541  0.24785  1.0000
  I   I304      1.0  0.51556  0.85556  0.54130  1.0000
  I   I305      1.0  0.34126  0.49030  0.92449  1.0000
  I   I306      1.0  0.47650  0.30140  0.80768  1.0000
  I   I307      1.0  0.51615  0.53011  0.35362  1.0000
  I   I308      1.0  0.68774  0.13336  0.75143  1.0000
  I   I309      1.0  0.21863  0.50594  0.63650  1.0000
  I   I310      1.0  0.01473  0.21214  0.60051  1.0000
  I   I311      1.0  0.22704  0.10407  0.26167  1.0000
  I   I312      1.0  0.62088  0.29849  0.65454  1.0000
  I   I313      1.0  0.76951  0.17586  0.38441  1.0000
  I   I314      1.0  0.36585  0.25688  0.68328  1.0000
  I   I315      1.0  0.50685  0.78628  0.01667  1.0000
  I   I316      1.0  0.22407  0.92824  0.78059  1.0000
  I   I317      1.0  0.39226  0.95244  0.92980  1.0000
  I   I318      1.0  0.08913  0.80231  0.64412  1.0000
  I   I319      1.0  0.63679  0.72715  0.20476  1.0000
  I   I320      1.0  0.99040  0.42432  0.62174  1.0000
  I   I321      1.0  0.30943  0.87618  0.09540  1.0000
  I   I322      1.0  0.62883  0.36472  0.70935  1.0000
  I   I323      1.0  0.92934  0.39726  0.81277  1.0000
  I   I324      1.0  0.10730  0.21868  0.00833  1.0000
  I   I325      1.0  0.22769  0.14772  0.47870  1.0000
  I   I326      1.0  0.42616  0.30709  0.78758  1.0000
  I   I327      1.0  0.21069  0.29698  0.03207  1.0000
  I   I328      1.0  0.62187  0.56525  0.23153  1.0000
  I   I329      1.0  0.54567  0.23177  0.65509  1.0000
  I   I330      1.0  0.20343  0.88502  0.83869  1.0000
  I   I331      1.0  0.21624  0.20782  0.07337  1.0000
  I   I332      1.0  0.73945  0.30482  0.53010  1.0000
  I   I333      1.0  0.51893  0.09774  0.60068  1.0000
  I   I334      1.0  0.86743  0.02638  0.22169  1.0000
  I   I335      1.0  0.47550  0.69449  0.22884  1.0000
  I   I336      1.0  0.80614  0.53939  0.95202  1.0000
  I   I337      1.0  0.03597  0.97031  0.30855  1.0000
  I   I338      1.0  0.29827  0.35097  0.57170  1.0000
  I   I339      1.0  0.96138  0.16866  0.06793  1.0000
  I   I340      1.0  0.88047  0.34689  0.50161  1.0000
  I   I341      1.0  0.41369  0.58105  0.16055  1.0000
  I   I342      1.0  0.95189  0.75604  0.59914  1.0000
  I   I343      1.0  0.70776  0.83165  0.61439  1.0000
  I   I344      1.0  0.45898  0.33594  0.37186  1.0000
  I   I345      1.0  0.45801  0.13102  0.34335  1.0000
  I   I346      1.0  0.65612  0.78747  0.07001  1.0000
  I   I347      1.0  0.72770  0.17528  0.94187  1.0000
  I   I348      1.0  0.77925  0.75777  0.93326  1.0000
  I   I349      1.0  0.65857  0.66511  0.78612  1.0000
  I   I350      1.0  0.74944  0.40230  0.72777  1.0000
  I   I351      1.0  0.90054  0.10773  0.77552  1.0000
  I   I352      1.0  0.42336  0.92184  0.65376  1.0000
  I   I353      1.0  0.88189  0.79318  0.16218  1.0000
  I   I354      1.0  0.47404  0.24694  0.76288  1.0000
  I   I355      1.0  0.42382  0.63032  0.40793  1.0000
  I   I356      1.0  0.48749  0.56141  0.47496  1.0000
  I   I357      1.0  0.86222  0.96434  0.05635  1.0000
  I   I358      1.0  0.14262  0.80258  0.00823  1.0000
  I   I359      1.0  0.27786  0.11234  0.25269  1.0000
  I   I360      1.0  0.63815  0.22217  0.65743  1.0000
  I   I361      1.0  0.82396  0.18748  0.34852  1.0000
  I   I362      1.0  0.35665  0.19387  0.68011  1.0000
  I   I363      1.0  0.86853  0.94041  0.94954  1.0000
  I   I364      1.0  0.32675  0.87987  0.71359  1.0000
  I   I365      1.0  0.50139  0.04351  0.80550  1.0000
  I   I366      1.0  0.11230  0.74482  0.82937  1.0000
  I   I367      1.0  0.59522  0.78416  0.23867  1.0000
  I   I368      1.0  0.93849  0.30260  0.49120  1.0000
  I   I369      1.0  0.40877  0.87797  0.19052  1.0000
  I   I370      1.0  0.63068  0.34722  0.82309  1.0000
  I   I371      1.0  0.96865  0.47235  0.83262  1.0000
  I   I372      1.0  0.02166  0.23696  0.90128  1.0000
  I   I373      1.0  0.26918  0.07373  0.49854  1.0000
  I   I374      1.0  0.82606  0.27322  0.07336  1.0000
  I   I375      1.0  0.15623  0.34021  0.10022  1.0000
  I   I376      1.0  0.56992  0.29144  0.96435  1.0000
  I   I377      1.0  0.51891  0.23574  0.56150  1.0000
  I   I378      1.0  0.12287  0.90108  0.78941  1.0000
  I   I379      1.0  0.22777  0.52028  0.25276  1.0000
  I   I380      1.0  0.36921  0.64786  0.92491  1.0000
  I   I381      1.0  0.05943  0.69634  0.13380  1.0000
  I   I382      1.0  0.88517  0.08280  0.30583  1.0000
  I   I383      1.0  0.54927  0.51325  0.96494  1.0000
  I   I384      1.0  0.66600  0.25227  0.62878  1.0000
