data_image0
_chemical_formula_structural       Ti96I384
_chemical_formula_sum              "Ti96 I384"
_cell_length_a       54.3368
_cell_length_b       54.5244
_cell_length_c       26.3136
_cell_angle_alpha    88.7757
_cell_angle_beta     88.7757
_cell_angle_gamma    62.1586

_space_group_name_H-M_alt    "P 1"
_space_group_IT_number       1

loop_
  _space_group_symop_operation_xyz
  'x, y, z'

loop_
  _atom_site_type_symbol
  _atom_site_label
  _atom_site_symmetry_multiplicity
  _atom_site_fract_x
  _atom_site_fract_y
  _atom_site_fract_z
  _atom_site_occupancy
  Ti  Ti1       1.0  0.63610  0.68987  0.33146  1.0000
  Ti  Ti2       1.0  0.86958  0.13670  0.34739  1.0000
  Ti  Ti3       1.0  0.55342  0.80898  0.25823  1.0000
  Ti  Ti4       1.0  0.21858  0.05777  0.63192  1.0000
  Ti  Ti5       1.0  0.05482  0.22137  0.37737  1.0000
  Ti  Ti6       1.0  0.14140  0.20443  0.85766  1.0000
  Ti  Ti7       1.0  0.02591  0.90839  0.31558  1.0000
  Ti  Ti8       1.0  0.07166  0.05048  0.67123  1.0000
  Ti  Ti9       1.0  0.91677  0.85894  0.71058  1.0000
  Ti  Ti10      1.0  0.37850  0.86677  0.98264  1.0000
  Ti  Ti11      1.0  0.01556  0.58259  0.95590  1.0000
  Ti  Ti12      1.0  0.93430  0.65584  0.18930  1.0000
  Ti  Ti13      1.0  0.42765  0.16748  0.52803  1.0000
  Ti  Ti14      1.0  0.25026  0.17569  0.38003  1.0000
  Ti  Ti15      1.0  0.32127  0.05372  0.06231  1.0000
  Ti  Ti16      1.0  0.14432  0.79848  0.86672  1.0000
  Ti  Ti17      1.0  0.23421  0.67318  0.03023  1.0000
  Ti  Ti18      1.0  0.13926  0.50679  0.13315  1.0000
  Ti  Ti19      1.0  0.62091  0.63745  0.58314  1.0000
  Ti  Ti20      1.0  0.82556  0.81528  0.95271  1.0000
  Ti  Ti21      1.0  0.21387  0.61959  0.62838  1.0000
  Ti  Ti22      1.0  0.50560  0.90947  0.52763  1.0000
  Ti  Ti23      1.0  0.77877  0.87902  0.36030  1.0000
  Ti  Ti24      1.0  0.43001  0.03911  0.62745  1.0000
  Ti  Ti25      1.0  0.29723  0.20515  0.89758  1.0000
  Ti  Ti26      1.0  0.27840  0.36912  0.90898  1.0000
  Ti  Ti27      1.0  0.39313  0.56240  0.87855  1.0000
  Ti  Ti28      1.0  0.45278  0.68272  0.93420  1.0000
  Ti  Ti29      1.0  0.62109  0.47376  0.81341  1.0000
  Ti  Ti30      1.0  0.76345  0.47371  0.70340  1.0000
  Ti  Ti31      1.0  0.82829  0.41001  0.27528  1.0000
  Ti  Ti32      1.0  0.83226  0.26552  0.55437  1.0000
  Ti  Ti33      1.0  0.97478  0.47863  0.90205  1.0000
  Ti  Ti34      1.0  0.95445  0.79174  0.98439  1.0000
  Ti  Ti35      1.0  0.71109  0.71984  0.03893  1.0000
  Ti  Ti36      1.0  0.87537  0.62673  0.71507  1.0000
  Ti  Ti37      1.0  0.62422  0.24326  0.24549  1.0000
  Ti  Ti38      1.0  0.47315  0.31878  0.38187  1.0000
  Ti  Ti39      1.0  0.55451  0.37413  0.99142  1.0000
  Ti  Ti40      1.0  0.10839  0.97399  0.09420  1.0000
  Ti  Ti41      1.0  0.74376  0.17768  0.51199  1.0000
  Ti  Ti42      1.0  0.21266  0.86742  0.61655  1.0000
  Ti  Ti43      1.0  0.83494  0.18002  0.00050  1.0000
  Ti  Ti44      1.0  0.95149  0.44313  0.50586  1.0000
  Ti  Ti45      1.0  0.01776  0.52773  0.48174  1.0000
  Ti  Ti46      1.0  0.67729  0.05013  0.44867  1.0000
  Ti  Ti47      1.0  0.60761  0.97090  0.10403  1.0000
  Ti  Ti48      1.0  0.50190  0.22586  0.81730  1.0000
  Ti  Ti49      1.0  0.59639  0.76222  0.38421  1.0000
  Ti  Ti50      1.0  0.81672  0.12316  0.25659  1.0000
  Ti  Ti51      1.0  0.94393  0.09064  0.26238  1.0000
  Ti  Ti52      1.0  0.22788  0.03176  0.52602  1.0000
  Ti  Ti53      1.0  0.06824  0.26430  0.30924  1.0000
  Ti  Ti54      1.0  0.09763  0.18244  0.81834  1.0000
  Ti  Ti55      1.0  0.97345  0.87950  0.32836  1.0000
  Ti  Ti56      1.0  0.01443  0.08186  0.62130  1.0000
  Ti  Ti57      1.0  0.97752  0.87819  0.71453  1.0000
  Ti  Ti58      1.0  0.38537  0.82170  0.14344  1.0000
  Ti  Ti59      1.0  0.37953  0.88374  0.85637  1.0000
  Ti  Ti60      1.0  0.98789  0.62791  0.09478  1.0000
  Ti  Ti61      1.0  0.28383  0.02459  0.13650  1.0000
  Ti  Ti62      1.0  0.40219  0.15738  0.38410  1.0000
  Ti  Ti63      1.0  0.31993  0.09333  0.33793  1.0000
  Ti  Ti64      1.0  0.15375  0.43546  0.22308  1.0000
  Ti  Ti65      1.0  0.18612  0.72958  0.93976  1.0000
  Ti  Ti66      1.0  0.10225  0.75525  0.53930  1.0000
  Ti  Ti67      1.0  0.61016  0.62863  0.72087  1.0000
  Ti  Ti68      1.0  0.75773  0.86426  0.85196  1.0000
  Ti  Ti69      1.0  0.19064  0.59216  0.71796  1.0000
  Ti  Ti70      1.0  0.49123  0.99631  0.49164  1.0000
  Ti  Ti71      1.0  0.86234  0.81155  0.29383  1.0000
  Ti  Ti72      1.0  0.79211  0.84750  0.47679  1.0000
  Ti  Ti73      1.0  0.36479  0.61927  0.80265  1.0000
  Ti  Ti74      1.0  0.28013  0.28485  0.85862  1.0000
  Ti  Ti75      1.0  0.25175  0.44464  0.85158  1.0000
  Ti  Ti76      1.0  0.77424  0.55255  0.68078  1.0000
  Ti  Ti77      1.0  0.51669  0.64702  0.89842  1.0000
  Ti  Ti78      1.0  0.68870  0.48115  0.80051  1.0000
  Ti  Ti79      1.0  0.92595  0.45306  0.92347  1.0000
  Ti  Ti80      1.0  0.86947  0.33773  0.23142  1.0000
  Ti  Ti81      1.0  0.78870  0.31981  0.60066  1.0000
  Ti  Ti82      1.0  0.92180  0.88207  0.02316  1.0000
  Ti  Ti83      1.0  0.62412  0.75405  0.01487  1.0000
  Ti  Ti84      1.0  0.84071  0.64763  0.59233  1.0000
  Ti  Ti85      1.0  0.66139  0.16682  0.15789  1.0000
  Ti  Ti86      1.0  0.53117  0.27425  0.31859  1.0000
  Ti  Ti87      1.0  0.53284  0.42422  0.10237  1.0000
  Ti  Ti88      1.0  0.15664  0.96228  0.22355  1.0000
  Ti  Ti89      1.0  0.68494  0.23202  0.62066  1.0000
  Ti  Ti90      1.0  0.23056  0.89291  0.50038  1.0000
  Ti  Ti91      1.0  0.08301  0.48943  0.57905  1.0000
  Ti  Ti92      1.0  0.81340  0.25055  0.05756  1.0000
  Ti  Ti93      1.0  0.96212  0.50124  0.41247  1.0000
  Ti  Ti94      1.0  0.54720  0.19359  0.72529  1.0000
  Ti  Ti95      1.0  0.73485  0.04067  0.40695  1.0000
  Ti  Ti96      1.0  0.58950  0.90647  0.02118  1.0000
  I   I1        1.0  0.77058  0.12652  0.29999  1.0000
  I   I2        1.0  0.87186  0.18228  0.34183  1.0000
  I   I3        1.0  0.59777  0.71577  0.42989  1.0000
  I   I4        1.0  0.06977  0.22498  0.24426  1.0000
  I   I5        1.0  0.09691  0.13988  0.86592  1.0000
  I   I6        1.0  0.10350  0.19682  0.91835  1.0000
  I   I7        1.0  0.00682  0.10500  0.52964  1.0000
  I   I8        1.0  0.10654  0.99643  0.65239  1.0000
  I   I9        1.0  0.91480  0.82302  0.77385  1.0000
  I   I10       1.0  0.42613  0.84366  0.92210  1.0000
  I   I11       1.0  0.04035  0.59861  0.10907  1.0000
  I   I12       1.0  0.39962  0.77106  0.11515  1.0000
  I   I13       1.0  0.41204  0.13132  0.48216  1.0000
  I   I14       1.0  0.34404  0.10362  0.25314  1.0000
  I   I15       1.0  0.34154  0.01630  0.13772  1.0000
  I   I16       1.0  0.12562  0.76690  0.93947  1.0000
  I   I17       1.0  0.15675  0.72249  0.53809  1.0000
  I   I18       1.0  0.15057  0.40146  0.16759  1.0000
  I   I19       1.0  0.77278  0.82666  0.77926  1.0000
  I   I20       1.0  0.15662  0.63883  0.64748  1.0000
  I   I21       1.0  0.24255  0.56467  0.73713  1.0000
  I   I22       1.0  0.91071  0.80253  0.33484  1.0000
  I   I23       1.0  0.83580  0.84268  0.38458  1.0000
  I   I24       1.0  0.47925  0.03774  0.58208  1.0000
  I   I25       1.0  0.25160  0.25764  0.83958  1.0000
  I   I26       1.0  0.25528  0.39445  0.80110  1.0000
  I   I27       1.0  0.36339  0.62882  0.89831  1.0000
  I   I28       1.0  0.51620  0.67736  0.82078  1.0000
  I   I29       1.0  0.67782  0.45700  0.87749  1.0000
  I   I30       1.0  0.75641  0.52342  0.75988  1.0000
  I   I31       1.0  0.82121  0.45712  0.24294  1.0000
  I   I32       1.0  0.78772  0.28914  0.67892  1.0000
  I   I33       1.0  0.98480  0.42871  0.95472  1.0000
  I   I34       1.0  0.73248  0.74425  0.08967  1.0000
  I   I35       1.0  0.88427  0.66839  0.71204  1.0000
  I   I36       1.0  0.95461  0.90632  0.04199  1.0000
  I   I37       1.0  0.59450  0.25358  0.32921  1.0000
  I   I38       1.0  0.49380  0.47649  0.10445  1.0000
  I   I39       1.0  0.69209  0.11436  0.18806  1.0000
  I   I40       1.0  0.70497  0.24668  0.69953  1.0000
  I   I41       1.0  0.22433  0.92753  0.57498  1.0000
  I   I42       1.0  0.13973  0.94029  0.30111  1.0000
  I   I43       1.0  0.78836  0.20720  0.06256  1.0000
  I   I44       1.0  0.92130  0.48709  0.44163  1.0000
  I   I45       1.0  0.98721  0.58219  0.47458  1.0000
  I   I46       1.0  0.69129  0.02122  0.35926  1.0000
  I   I47       1.0  0.64916  0.93274  0.14661  1.0000
  I   I48       1.0  0.51190  0.25274  0.73816  1.0000
  I   I49       1.0  0.59867  0.66970  0.34944  1.0000
  I   I50       1.0  0.81497  0.16734  0.29938  1.0000
  I   I51       1.0  0.98014  0.10517  0.26584  1.0000
  I   I52       1.0  0.23145  0.07435  0.49174  1.0000
  I   I53       1.0  0.03688  0.27997  0.40009  1.0000
  I   I54       1.0  0.04836  0.22725  0.81588  1.0000
  I   I55       1.0  0.99377  0.89444  0.40656  1.0000
  I   I56       1.0  0.04893  0.03353  0.56623  1.0000
  I   I57       1.0  0.93127  0.89114  0.63715  1.0000
  I   I58       1.0  0.34815  0.91923  0.94057  1.0000
  I   I59       1.0  0.40688  0.91178  0.85368  1.0000
  I   I60       1.0  0.92605  0.65838  0.08062  1.0000
  I   I61       1.0  0.47492  0.15325  0.47676  1.0000
  I   I62       1.0  0.43455  0.11022  0.33913  1.0000
  I   I63       1.0  0.19648  0.18924  0.39349  1.0000
  I   I64       1.0  0.17472  0.80909  0.80376  1.0000
  I   I65       1.0  0.23941  0.69164  0.93177  1.0000
  I   I66       1.0  0.07983  0.74558  0.46153  1.0000
  I   I67       1.0  0.57246  0.63001  0.64321  1.0000
  I   I68       1.0  0.87900  0.77887  0.94491  1.0000
  I   I69       1.0  0.20850  0.63203  0.52834  1.0000
  I   I70       1.0  0.49616  0.94632  0.43688  1.0000
  I   I71       1.0  0.80843  0.84128  0.27483  1.0000
  I   I72       1.0  0.82241  0.79404  0.48389  1.0000
  I   I73       1.0  0.39505  0.56261  0.98434  1.0000
  I   I74       1.0  0.32132  0.30970  0.88333  1.0000
  I   I75       1.0  0.27118  0.46552  0.78564  1.0000
  I   I76       1.0  0.48412  0.69831  0.98859  1.0000
  I   I77       1.0  0.55479  0.65531  0.94541  1.0000
  I   I78       1.0  0.70271  0.49742  0.71108  1.0000
  I   I79       1.0  0.93270  0.41133  0.98686  1.0000
  I   I80       1.0  0.82584  0.32964  0.25435  1.0000
  I   I81       1.0  0.76994  0.29167  0.53940  1.0000
  I   I82       1.0  0.00327  0.75689  0.02802  1.0000
  I   I83       1.0  0.70706  0.74851  0.95678  1.0000
  I   I84       1.0  0.82010  0.64743  0.68857  1.0000
  I   I85       1.0  0.62661  0.18850  0.25245  1.0000
  I   I86       1.0  0.48272  0.28067  0.29443  1.0000
  I   I87       1.0  0.51840  0.39698  0.17379  1.0000
  I   I88       1.0  0.05437  0.99359  0.10712  1.0000
  I   I89       1.0  0.78242  0.18896  0.54538  1.0000
  I   I90       1.0  0.24582  0.86214  0.68719  1.0000
  I   I91       1.0  0.08771  0.45489  0.65050  1.0000
  I   I92       1.0  0.80683  0.16500  0.94457  1.0000
  I   I93       1.0  0.01524  0.50023  0.39091  1.0000
  I   I94       1.0  0.57360  0.14106  0.70046  1.0000
  I   I95       1.0  0.77178  0.05534  0.43169  1.0000
  I   I96       1.0  0.53775  0.92894  0.01122  1.0000
  I   I97       1.0  0.51351  0.85829  0.27941  1.0000
  I   I98       1.0  0.64571  0.65654  0.25551  1.0000
  I   I99       1.0  0.88551  0.12586  0.23833  1.0000
  I   I100      1.0  0.27791  0.98422  0.51663  1.0000
  I   I101      1.0  0.17456  0.06951  0.57866  1.0000
  I   I102      1.0  0.07946  0.17253  0.34959  1.0000
  I   I103      1.0  0.91827  0.90542  0.34229  1.0000
  I   I104      1.0  0.06832  0.86853  0.36050  1.0000
  I   I105      1.0  0.02894  0.84019  0.72368  1.0000
  I   I106      1.0  0.90189  0.71105  0.17595  1.0000
  I   I107      1.0  0.35487  0.83805  0.93820  1.0000
  I   I108      1.0  0.96905  0.59158  0.02456  1.0000
  I   I109      1.0  0.29049  0.98641  0.20200  1.0000
  I   I110      1.0  0.41357  0.21093  0.58879  1.0000
  I   I111      1.0  0.25372  0.20689  0.46357  1.0000
  I   I112      1.0  0.18718  0.46258  0.15387  1.0000
  I   I113      1.0  0.17954  0.72590  0.84146  1.0000
  I   I114      1.0  0.27632  0.67960  0.05642  1.0000
  I   I115      1.0  0.64876  0.64811  0.67433  1.0000
  I   I116      1.0  0.62733  0.59601  0.79742  1.0000
  I   I117      1.0  0.81734  0.83597  0.85579  1.0000
  I   I118      1.0  0.44460  0.99443  0.54540  1.0000
  I   I119      1.0  0.46553  0.89891  0.50306  1.0000
  I   I120      1.0  0.75706  0.84461  0.41274  1.0000
  I   I121      1.0  0.41222  0.51399  0.84385  1.0000
  I   I122      1.0  0.28814  0.25201  0.95423  1.0000
  I   I123      1.0  0.31057  0.39351  0.88793  1.0000
  I   I124      1.0  0.76223  0.50960  0.63091  1.0000
  I   I125      1.0  0.40796  0.72845  0.89833  1.0000
  I   I126      1.0  0.66119  0.45214  0.73459  1.0000
  I   I127      1.0  0.90315  0.50749  0.95456  1.0000
  I   I128      1.0  0.86228  0.35986  0.32873  1.0000
  I   I129      1.0  0.88105  0.25595  0.59163  1.0000
  I   I130      1.0  0.88337  0.59641  0.62444  1.0000
  I   I131      1.0  0.97404  0.83072  0.02659  1.0000
  I   I132      1.0  0.62401  0.80092  0.99796  1.0000
  I   I133      1.0  0.57087  0.43002  0.14415  1.0000
  I   I134      1.0  0.54599  0.26740  0.22414  1.0000
  I   I135      1.0  0.42816  0.34741  0.32937  1.0000
  I   I136      1.0  0.20562  0.82377  0.62481  1.0000
  I   I137      1.0  0.20867  0.92538  0.21107  1.0000
  I   I138      1.0  0.76030  0.18116  0.42316  1.0000
  I   I139      1.0  0.06895  0.52432  0.47868  1.0000
  I   I140      1.0  0.79062  0.26172  0.14949  1.0000
  I   I141      1.0  0.99453  0.44440  0.45238  1.0000
  I   I142      1.0  0.50358  0.26099  0.88367  1.0000
  I   I143      1.0  0.74089  0.99828  0.46956  1.0000
  I   I144      1.0  0.59951  0.95138  0.00607  1.0000
  I   I145      1.0  0.54238  0.78848  0.36363  1.0000
  I   I146      1.0  0.85023  0.14048  0.44498  1.0000
  I   I147      1.0  0.56375  0.81475  0.16415  1.0000
  I   I148      1.0  0.20326  0.03274  0.44641  1.0000
  I   I149      1.0  0.01902  0.29523  0.26922  1.0000
  I   I150      1.0  0.12550  0.23156  0.76821  1.0000
  I   I151      1.0  0.97248  0.92967  0.27754  1.0000
  I   I152      1.0  0.09615  0.05177  0.75052  1.0000
  I   I153      1.0  0.96570  0.88601  0.81071  1.0000
  I   I154      1.0  0.40776  0.89613  0.01319  1.0000
  I   I155      1.0  0.03256  0.53211  0.98543  1.0000
  I   I156      1.0  0.99661  0.63515  0.99784  1.0000
  I   I157      1.0  0.28641  0.00428  0.04917  1.0000
  I   I158      1.0  0.26531  0.14509  0.29596  1.0000
  I   I159      1.0  0.28871  0.08240  0.98229  1.0000
  I   I160      1.0  0.14280  0.52756  0.04413  1.0000
  I   I161      1.0  0.18023  0.68525  0.99053  1.0000
  I   I162      1.0  0.13893  0.49871  0.24636  1.0000
  I   I163      1.0  0.58675  0.68650  0.55774  1.0000
  I   I164      1.0  0.76789  0.86306  0.95484  1.0000
  I   I165      1.0  0.26955  0.58895  0.62863  1.0000
  I   I166      1.0  0.53232  0.94662  0.54509  1.0000
  I   I167      1.0  0.78464  0.91852  0.31676  1.0000
  I   I168      1.0  0.38802  0.07461  0.57834  1.0000
  I   I169      1.0  0.26948  0.19484  0.96925  1.0000
  I   I170      1.0  0.24941  0.33785  0.89373  1.0000
  I   I171      1.0  0.43892  0.56775  0.87287  1.0000
  I   I172      1.0  0.82924  0.52133  0.67913  1.0000
  I   I173      1.0  0.61892  0.42650  0.81576  1.0000
  I   I174      1.0  0.74762  0.45075  0.79191  1.0000
  I   I175      1.0  0.77936  0.41397  0.25355  1.0000
  I   I176      1.0  0.81883  0.33457  0.65604  1.0000
  I   I177      1.0  0.97122  0.51435  0.97536  1.0000
  I   I178      1.0  0.90730  0.84366  0.96818  1.0000
  I   I179      1.0  0.66843  0.69995  0.02130  1.0000
  I   I180      1.0  0.92863  0.58128  0.71840  1.0000
  I   I181      1.0  0.67541  0.22060  0.27727  1.0000
  I   I182      1.0  0.51054  0.33041  0.33447  1.0000
  I   I183      1.0  0.60640  0.36059  0.00381  1.0000
  I   I184      1.0  0.11060  0.01566  0.04910  1.0000
  I   I185      1.0  0.77254  0.12509  0.52903  1.0000
  I   I186      1.0  0.22141  0.92129  0.40954  1.0000
  I   I187      1.0  0.85929  0.20260  0.08785  1.0000
  I   I188      1.0  0.99289  0.41866  0.58423  1.0000
  I   I189      1.0  0.97076  0.52041  0.50122  1.0000
  I   I190      1.0  0.62517  0.08153  0.44827  1.0000
  I   I191      1.0  0.59741  0.00506  0.17964  1.0000
  I   I192      1.0  0.49111  0.19173  0.88792  1.0000
  I   I193      1.0  0.68622  0.66690  0.36782  1.0000
  I   I194      1.0  0.85256  0.09152  0.33934  1.0000
  I   I195      1.0  0.59833  0.81137  0.32151  1.0000
  I   I196      1.0  0.20609  0.11114  0.62828  1.0000
  I   I197      1.0  0.11103  0.21954  0.37547  1.0000
  I   I198      1.0  0.14681  0.24754  0.89179  1.0000
  I   I199      1.0  0.01807  0.95601  0.35421  1.0000
  I   I200      1.0  0.96722  0.09017  0.64749  1.0000
  I   I201      1.0  0.89409  0.85080  0.63177  1.0000
  I   I202      1.0  0.34783  0.87721  0.07679  1.0000
  I   I203      1.0  0.98449  0.58113  0.87932  1.0000
  I   I204      1.0  0.95255  0.65073  0.28048  1.0000
  I   I205      1.0  0.43246  0.13612  0.60906  1.0000
  I   I206      1.0  0.25463  0.21762  0.33174  1.0000
  I   I207      1.0  0.35588  0.07230  0.06666  1.0000
  I   I208      1.0  0.11092  0.79536  0.79938  1.0000
  I   I209      1.0  0.26146  0.62331  0.98079  1.0000
  I   I210      1.0  0.11546  0.56123  0.16486  1.0000
  I   I211      1.0  0.66435  0.63932  0.52674  1.0000
  I   I212      1.0  0.80058  0.78616  0.94123  1.0000
  I   I213      1.0  0.19764  0.57828  0.61138  1.0000
  I   I214      1.0  0.50287  0.89808  0.62346  1.0000
  I   I215      1.0  0.72490  0.89744  0.31860  1.0000
  I   I216      1.0  0.42848  0.00770  0.69975  1.0000
  I   I217      1.0  0.30077  0.17906  0.81693  1.0000
  I   I218      1.0  0.27523  0.36414  0.00543  1.0000
  I   I219      1.0  0.38701  0.64867  0.76923  1.0000
  I   I220      1.0  0.41794  0.67253  0.00020  1.0000
  I   I221      1.0  0.59396  0.49808  0.89776  1.0000
  I   I222      1.0  0.78553  0.43066  0.64059  1.0000
  I   I223      1.0  0.86414  0.38899  0.18184  1.0000
  I   I224      1.0  0.84270  0.23990  0.46830  1.0000
  I   I225      1.0  0.01879  0.46538  0.85084  1.0000
  I   I226      1.0  0.97394  0.76980  0.89849  1.0000
  I   I227      1.0  0.75289  0.67054  0.03280  1.0000
  I   I228      1.0  0.88006  0.65232  0.54603  1.0000
  I   I229      1.0  0.63285  0.22559  0.14424  1.0000
  I   I230      1.0  0.47045  0.36015  0.43964  1.0000
  I   I231      1.0  0.49950  0.41119  0.02632  1.0000
  I   I232      1.0  0.11924  0.93706  0.02233  1.0000
  I   I233      1.0  0.63336  0.24218  0.64775  1.0000
  I   I234      1.0  0.28413  0.88234  0.48891  1.0000
  I   I235      1.0  0.87857  0.13218  0.00216  1.0000
  I   I236      1.0  0.91762  0.44864  0.58348  1.0000
  I   I237      1.0  0.05867  0.47000  0.50547  1.0000
  I   I238      1.0  0.67008  0.00828  0.50129  1.0000
  I   I239      1.0  0.63277  0.99410  0.05044  1.0000
  I   I240      1.0  0.45118  0.25522  0.79098  1.0000
  I   I241      1.0  0.59807  0.73840  0.28295  1.0000
  I   I242      1.0  0.92625  0.10763  0.36386  1.0000
  I   I243      1.0  0.50891  0.79959  0.23868  1.0000
  I   I244      1.0  0.27491  0.03220  0.62122  1.0000
  I   I245      1.0  0.00911  0.23225  0.34024  1.0000
  I   I246      1.0  0.19284  0.17465  0.90155  1.0000
  I   I247      1.0  0.05317  0.91071  0.23299  1.0000
  I   I248      1.0  0.02787  0.03445  0.69408  1.0000
  I   I249      1.0  0.88964  0.90346  0.75810  1.0000
  I   I250      1.0  0.41681  0.82711  0.05881  1.0000
  I   I251      1.0  0.06279  0.58431  0.93773  1.0000
  I   I252      1.0  0.89631  0.64433  0.23013  1.0000
  I   I253      1.0  0.39138  0.20254  0.45038  1.0000
  I   I254      1.0  0.36658  0.05795  0.38194  1.0000
  I   I255      1.0  0.35395  0.00570  0.00956  1.0000
  I   I256      1.0  0.11240  0.84833  0.90137  1.0000
  I   I257      1.0  0.22801  0.64481  0.11257  1.0000
  I   I258      1.0  0.10877  0.48276  0.13896  1.0000
  I   I259      1.0  0.64706  0.58571  0.64828  1.0000
  I   I260      1.0  0.74656  0.91229  0.81560  1.0000
  I   I261      1.0  0.21509  0.65627  0.68573  1.0000
  I   I262      1.0  0.55257  0.87409  0.50534  1.0000
  I   I263      1.0  0.76572  0.91428  0.43920  1.0000
  I   I264      1.0  0.42579  0.07124  0.70892  1.0000
  I   I265      1.0  0.34791  0.17663  0.93755  1.0000
  I   I266      1.0  0.22713  0.41095  0.91910  1.0000
  I   I267      1.0  0.34074  0.58297  0.86090  1.0000
  I   I268      1.0  0.46035  0.65330  0.85020  1.0000
  I   I269      1.0  0.57475  0.50417  0.76320  1.0000
  I   I270      1.0  0.81506  0.45410  0.73922  1.0000
  I   I271      1.0  0.81293  0.42270  0.36619  1.0000
  I   I272      1.0  0.83656  0.22027  0.60412  1.0000
  I   I273      1.0  0.93893  0.52030  0.83951  1.0000
  I   I274      1.0  0.92946  0.76760  0.03151  1.0000
  I   I275      1.0  0.66326  0.75409  0.09856  1.0000
  I   I276      1.0  0.86465  0.61837  0.80981  1.0000
  I   I277      1.0  0.61898  0.29306  0.24552  1.0000
  I   I278      1.0  0.44805  0.30243  0.46202  1.0000
  I   I279      1.0  0.54469  0.37277  0.89063  1.0000
  I   I280      1.0  0.10198  0.99638  0.19523  1.0000
  I   I281      1.0  0.72801  0.17763  0.62246  1.0000
  I   I282      1.0  0.16871  0.89936  0.67296  1.0000
  I   I283      1.0  0.76585  0.27975  0.01165  1.0000
  I   I284      1.0  0.96530  0.39356  0.48287  1.0000
  I   I285      1.0  0.02466  0.52362  0.58988  1.0000
  I   I286      1.0  0.70142  0.07033  0.50968  1.0000
  I   I287      1.0  0.58182  0.93867  0.12374  1.0000
  I   I288      1.0  0.50057  0.18501  0.72231  1.0000
  I   I289      1.0  0.65445  0.73380  0.37528  1.0000
  I   I290      1.0  0.79003  0.15360  0.17569  1.0000
  I   I291      1.0  0.95868  0.06517  0.17547  1.0000
  I   I292      1.0  0.20988  0.05365  0.73076  1.0000
  I   I293      1.0  0.10167  0.27843  0.25307  1.0000
  I   I294      1.0  0.09080  0.15617  0.74306  1.0000
  I   I295      1.0  0.00391  0.85108  0.24320  1.0000
  I   I296      1.0  0.01865  0.11524  0.68208  1.0000
  I   I297      1.0  0.98146  0.92417  0.68383  1.0000
  I   I298      1.0  0.41222  0.80886  0.22716  1.0000
  I   I299      1.0  0.33189  0.91088  0.80743  1.0000
  I   I300      1.0  0.97899  0.67473  0.14558  1.0000
  I   I301      1.0  0.27149  0.08260  0.12509  1.0000
  I   I302      1.0  0.40334  0.18794  0.31073  1.0000
  I   I303      1.0  0.30063  0.13179  0.41253  1.0000
  I   I304      1.0  0.20239  0.40044  0.25523  1.0000
  I   I305      1.0  0.20252  0.73520  0.03698  1.0000
  I   I306      1.0  0.08883  0.80827  0.54541  1.0000
  I   I307      1.0  0.61465  0.61177  0.50734  1.0000
  I   I308      1.0  0.82006  0.82848  0.04683  1.0000
  I   I309      1.0  0.18159  0.55149  0.74148  1.0000
  I   I310      1.0  0.53410  0.99939  0.44777  1.0000
  I   I311      1.0  0.86519  0.76303  0.29700  1.0000
  I   I312      1.0  0.76808  0.85360  0.56466  1.0000
  I   I313      1.0  0.31877  0.65152  0.75486  1.0000
  I   I314      1.0  0.28002  0.29302  0.76525  1.0000
  I   I315      1.0  0.26049  0.46574  0.92882  1.0000
  I   I316      1.0  0.75850  0.59632  0.73096  1.0000
  I   I317      1.0  0.54684  0.59818  0.86040  1.0000
  I   I318      1.0  0.69994  0.50723  0.87178  1.0000
  I   I319      1.0  0.88293  0.46326  0.86564  1.0000
  I   I320      1.0  0.91100  0.29414  0.27922  1.0000
  I   I321      1.0  0.82424  0.31722  0.50959  1.0000
  I   I322      1.0  0.87091  0.92069  0.00361  1.0000
  I   I323      1.0  0.58244  0.75315  0.05575  1.0000
  I   I324      1.0  0.82410  0.61838  0.52939  1.0000
  I   I325      1.0  0.61915  0.15813  0.13371  1.0000
  I   I326      1.0  0.52427  0.26968  0.42510  1.0000
  I   I327      1.0  0.55543  0.32751  0.01784  1.0000
  I   I328      1.0  0.16318  0.00033  0.26289  1.0000
  I   I329      1.0  0.68876  0.21548  0.51625  1.0000
  I   I330      1.0  0.25388  0.83722  0.53879  1.0000
  I   I331      1.0  0.09757  0.52349  0.62052  1.0000
  I   I332      1.0  0.83939  0.22013  0.95131  1.0000
  I   I333      1.0  0.93576  0.55242  0.37667  1.0000
  I   I334      1.0  0.56822  0.19036  0.82451  1.0000
  I   I335      1.0  0.68347  0.08622  0.37477  1.0000
  I   I336      1.0  0.59257  0.86520  0.08406  1.0000
  I   I337      1.0  0.58685  0.79225  0.46413  1.0000
  I   I338      1.0  0.84368  0.07596  0.22216  1.0000
  I   I339      1.0  0.95916  0.04263  0.30288  1.0000
  I   I340      1.0  0.21454  0.00721  0.61930  1.0000
  I   I341      1.0  0.03991  0.21941  0.47390  1.0000
  I   I342      1.0  0.15550  0.15594  0.80232  1.0000
  I   I343      1.0  0.98336  0.83698  0.39060  1.0000
  I   I344      1.0  0.08611  0.07678  0.60367  1.0000
  I   I345      1.0  0.97094  0.82990  0.67184  1.0000
  I   I346      1.0  0.34502  0.82950  0.20609  1.0000
  I   I347      1.0  0.39809  0.84815  0.78370  1.0000
  I   I348      1.0  0.96873  0.60005  0.15635  1.0000
  I   I349      1.0  0.22865  0.04679  0.14572  1.0000
  I   I350      1.0  0.35779  0.15505  0.37306  1.0000
  I   I351      1.0  0.29981  0.06082  0.31400  1.0000
  I   I352      1.0  0.11481  0.44730  0.28884  1.0000
  I   I353      1.0  0.19180  0.77669  0.92860  1.0000
  I   I354      1.0  0.08170  0.74492  0.62026  1.0000
  I   I355      1.0  0.58789  0.67619  0.76712  1.0000
  I   I356      1.0  0.70676  0.88121  0.87790  1.0000
  I   I357      1.0  0.17615  0.61860  0.80467  1.0000
  I   I358      1.0  0.45227  0.03283  0.43127  1.0000
  I   I359      1.0  0.88856  0.79899  0.20679  1.0000
  I   I360      1.0  0.82691  0.86763  0.50723  1.0000
  I   I361      1.0  0.39509  0.57798  0.74427  1.0000
  I   I362      1.0  0.33075  0.23718  0.85080  1.0000
  I   I363      1.0  0.20023  0.47995  0.83132  1.0000
  I   I364      1.0  0.77703  0.56756  0.58900  1.0000
  I   I365      1.0  0.49224  0.62296  0.96679  1.0000
  I   I366      1.0  0.63491  0.51803  0.79375  1.0000
  I   I367      1.0  0.95644  0.44898  0.83564  1.0000
  I   I368      1.0  0.89024  0.31261  0.14571  1.0000
  I   I369      1.0  0.74001  0.36268  0.59514  1.0000
  I   I370      1.0  0.91651  0.86420  0.11136  1.0000
  I   I371      1.0  0.61084  0.75455  0.92212  1.0000
  I   I372      1.0  0.79889  0.69923  0.59420  1.0000
  I   I373      1.0  0.69281  0.15606  0.07621  1.0000
  I   I374      1.0  0.54350  0.21614  0.34099  1.0000
  I   I375      1.0  0.55183  0.42637  0.00596  1.0000
  I   I376      1.0  0.14159  0.92659  0.14834  1.0000
  I   I377      1.0  0.66806  0.27795  0.57306  1.0000
  I   I378      1.0  0.17608  0.90283  0.51458  1.0000
  I   I379      1.0  0.12796  0.45364  0.53387  1.0000
  I   I380      1.0  0.83710  0.28053  0.04046  1.0000
  I   I381      1.0  0.97190  0.47666  0.31700  1.0000
  I   I382      1.0  0.56321  0.20479  0.64140  1.0000
  I   I383      1.0  0.75703  0.02585  0.31511  1.0000
  I   I384      1.0  0.61076  0.87970  0.93879  1.0000
