data_image0
_chemical_formula_structural       Ti96I384
_chemical_formula_sum              "Ti96 I384"
_cell_length_a       59.6763
_cell_length_b       60.0388
_cell_length_c       29.0673
_cell_angle_alpha    88.7757
_cell_angle_beta     88.7757
_cell_angle_gamma    62.1586

_space_group_name_H-M_alt    "P 1"
_space_group_IT_number       1

loop_
  _space_group_symop_operation_xyz
  'x, y, z'

loop_
  _atom_site_type_symbol
  _atom_site_label
  _atom_site_symmetry_multiplicity
  _atom_site_fract_x
  _atom_site_fract_y
  _atom_site_fract_z
  _atom_site_occupancy
  Ti  Ti1       1.0  0.90370  0.87499  0.73351  1.0000
  Ti  Ti2       1.0  0.74210  0.06168  0.70843  1.0000
  Ti  Ti3       1.0  0.78706  0.84130  0.83315  1.0000
  Ti  Ti4       1.0  0.40393  0.50160  0.39655  1.0000
  Ti  Ti5       1.0  0.05465  0.74867  0.20565  1.0000
  Ti  Ti6       1.0  0.37934  0.00323  0.17057  1.0000
  Ti  Ti7       1.0  0.10111  0.85613  0.02423  1.0000
  Ti  Ti8       1.0  0.22730  0.59111  0.18755  1.0000
  Ti  Ti9       1.0  0.78976  0.19328  0.34736  1.0000
  Ti  Ti10      1.0  0.75849  0.02294  0.38408  1.0000
  Ti  Ti11      1.0  0.07344  0.65402  0.96049  1.0000
  Ti  Ti12      1.0  0.38656  0.75021  0.21511  1.0000
  Ti  Ti13      1.0  0.37928  0.27563  0.52920  1.0000
  Ti  Ti14      1.0  0.11790  0.23111  0.03183  1.0000
  Ti  Ti15      1.0  0.31722  0.83731  0.96074  1.0000
  Ti  Ti16      1.0  0.86444  0.27224  0.64862  1.0000
  Ti  Ti17      1.0  0.11610  0.52519  0.91613  1.0000
  Ti  Ti18      1.0  0.96350  0.47283  0.46950  1.0000
  Ti  Ti19      1.0  0.69996  0.91313  0.34347  1.0000
  Ti  Ti20      1.0  0.45736  0.06704  0.90733  1.0000
  Ti  Ti21      1.0  0.33120  0.48694  0.81581  1.0000
  Ti  Ti22      1.0  0.50280  0.92930  0.32243  1.0000
  Ti  Ti23      1.0  0.51936  0.81769  0.85725  1.0000
  Ti  Ti24      1.0  0.40020  0.03290  0.49557  1.0000
  Ti  Ti25      1.0  0.17871  0.33911  0.30552  1.0000
  Ti  Ti26      1.0  0.17146  0.38898  0.57926  1.0000
  Ti  Ti27      1.0  0.43342  0.53805  0.69071  1.0000
  Ti  Ti28      1.0  0.64953  0.62901  0.70806  1.0000
  Ti  Ti29      1.0  0.99288  0.27647  0.36744  1.0000
  Ti  Ti30      1.0  0.81297  0.44147  0.85886  1.0000
  Ti  Ti31      1.0  0.79968  0.42952  0.31181  1.0000
  Ti  Ti32      1.0  0.86797  0.00020  0.07514  1.0000
  Ti  Ti33      1.0  0.42245  0.85839  0.52187  1.0000
  Ti  Ti34      1.0  0.84817  0.73517  0.53472  1.0000
  Ti  Ti35      1.0  0.73398  0.32129  0.09731  1.0000
  Ti  Ti36      1.0  0.89278  0.57724  0.73541  1.0000
  Ti  Ti37      1.0  0.11217  0.18501  0.60682  1.0000
  Ti  Ti38      1.0  0.50264  0.26909  0.40052  1.0000
  Ti  Ti39      1.0  0.42020  0.25197  0.18580  1.0000
  Ti  Ti40      1.0  0.10316  0.52790  0.25695  1.0000
  Ti  Ti41      1.0  0.63179  0.63041  0.40411  1.0000
  Ti  Ti42      1.0  0.26154  0.73565  0.66614  1.0000
  Ti  Ti43      1.0  0.10210  0.99273  0.34104  1.0000
  Ti  Ti44      1.0  0.74368  0.71702  0.93298  1.0000
  Ti  Ti45      1.0  0.74306  0.41974  0.72430  1.0000
  Ti  Ti46      1.0  0.95924  0.02763  0.33182  1.0000
  Ti  Ti47      1.0  0.61104  0.24127  0.12032  1.0000
  Ti  Ti48      1.0  0.41643  0.56359  0.11263  1.0000
  Ti  Ti49      1.0  0.86581  0.91983  0.65186  1.0000
  Ti  Ti50      1.0  0.61210  0.10397  0.11329  1.0000
  Ti  Ti51      1.0  0.72311  0.00465  0.67757  1.0000
  Ti  Ti52      1.0  0.46254  0.46125  0.45997  1.0000
  Ti  Ti53      1.0  0.98833  0.79757  0.15927  1.0000
  Ti  Ti54      1.0  0.33779  0.06457  0.19861  1.0000
  Ti  Ti55      1.0  0.04194  0.91387  0.95202  1.0000
  Ti  Ti56      1.0  0.24640  0.64180  0.15785  1.0000
  Ti  Ti57      1.0  0.84422  0.16131  0.24091  1.0000
  Ti  Ti58      1.0  0.14510  0.91673  0.34898  1.0000
  Ti  Ti59      1.0  0.74523  0.08042  0.33662  1.0000
  Ti  Ti60      1.0  0.40801  0.69683  0.12066  1.0000
  Ti  Ti61      1.0  0.30468  0.77789  0.98813  1.0000
  Ti  Ti62      1.0  0.40124  0.21147  0.46444  1.0000
  Ti  Ti63      1.0  0.16253  0.16547  0.02042  1.0000
  Ti  Ti64      1.0  0.94344  0.45361  0.36211  1.0000
  Ti  Ti65      1.0  0.91901  0.19916  0.67964  1.0000
  Ti  Ti66      1.0  0.63937  0.30239  0.86658  1.0000
  Ti  Ti67      1.0  0.71861  0.85433  0.29668  1.0000
  Ti  Ti68      1.0  0.44566  0.11310  0.84205  1.0000
  Ti  Ti69      1.0  0.30293  0.43916  0.80879  1.0000
  Ti  Ti70      1.0  0.46161  0.97419  0.46091  1.0000
  Ti  Ti71      1.0  0.48396  0.81830  0.97205  1.0000
  Ti  Ti72      1.0  0.88463  0.85691  0.39762  1.0000
  Ti  Ti73      1.0  0.37147  0.60901  0.72915  1.0000
  Ti  Ti74      1.0  0.22904  0.29729  0.24570  1.0000
  Ti  Ti75      1.0  0.09409  0.42710  0.65242  1.0000
  Ti  Ti76      1.0  0.82963  0.49206  0.94769  1.0000
  Ti  Ti77      1.0  0.59922  0.64269  0.73245  1.0000
  Ti  Ti78      1.0  0.05227  0.22193  0.35428  1.0000
  Ti  Ti79      1.0  0.46688  0.82546  0.44353  1.0000
  Ti  Ti80      1.0  0.76330  0.44981  0.21516  1.0000
  Ti  Ti81      1.0  0.86462  0.96469  0.93678  1.0000
  Ti  Ti82      1.0  0.86895  0.68155  0.57604  1.0000
  Ti  Ti83      1.0  0.72680  0.36159  0.02421  1.0000
  Ti  Ti84      1.0  0.91882  0.52978  0.81892  1.0000
  Ti  Ti85      1.0  0.17359  0.20150  0.54940  1.0000
  Ti  Ti86      1.0  0.54666  0.20544  0.45226  1.0000
  Ti  Ti87      1.0  0.39586  0.26177  0.05200  1.0000
  Ti  Ti88      1.0  0.06407  0.55225  0.18429  1.0000
  Ti  Ti89      1.0  0.63465  0.59437  0.31799  1.0000
  Ti  Ti90      1.0  0.20703  0.77247  0.58304  1.0000
  Ti  Ti91      1.0  0.70465  0.40015  0.70331  1.0000
  Ti  Ti92      1.0  0.95865  0.08813  0.99247  1.0000
  Ti  Ti93      1.0  0.77009  0.70950  0.01993  1.0000
  Ti  Ti94      1.0  0.38227  0.58667  0.02944  1.0000
  Ti  Ti95      1.0  0.91484  0.01082  0.43716  1.0000
  Ti  Ti96      1.0  0.61183  0.19598  0.05614  1.0000
  I   I1        1.0  0.66135  0.09138  0.10037  1.0000
  I   I2        1.0  0.73396  0.96546  0.61667  1.0000
  I   I3        1.0  0.88313  0.86616  0.65189  1.0000
  I   I4        1.0  0.94713  0.83621  0.20864  1.0000
  I   I5        1.0  0.37884  0.98117  0.25289  1.0000
  I   I6        1.0  0.30103  0.09031  0.24811  1.0000
  I   I7        1.0  0.25282  0.63800  0.06999  1.0000
  I   I8        1.0  0.26081  0.56682  0.12223  1.0000
  I   I9        1.0  0.77168  0.17269  0.40305  1.0000
  I   I10       1.0  0.72438  0.01998  0.45204  1.0000
  I   I11       1.0  0.10180  0.60890  0.91972  1.0000
  I   I12       1.0  0.09920  0.74319  0.17532  1.0000
  I   I13       1.0  0.43695  0.20233  0.53473  1.0000
  I   I14       1.0  0.06549  0.25008  0.02151  1.0000
  I   I15       1.0  0.28109  0.82888  0.02477  1.0000
  I   I16       1.0  0.91437  0.24736  0.63481  1.0000
  I   I17       1.0  0.65840  0.30288  0.78652  1.0000
  I   I18       1.0  0.96423  0.42927  0.45758  1.0000
  I   I19       1.0  0.43206  0.14911  0.90464  1.0000
  I   I20       1.0  0.04568  0.64690  0.02247  1.0000
  I   I21       1.0  0.32391  0.40692  0.73461  1.0000
  I   I22       1.0  0.48020  0.85784  0.90375  1.0000
  I   I23       1.0  0.45367  0.81202  0.92122  1.0000
  I   I24       1.0  0.41341  0.97649  0.47983  1.0000
  I   I25       1.0  0.22625  0.34092  0.26239  1.0000
  I   I26       1.0  0.12092  0.43071  0.56170  1.0000
  I   I27       1.0  0.47676  0.52294  0.73182  1.0000
  I   I28       1.0  0.61073  0.64583  0.64260  1.0000
  I   I29       1.0  0.04533  0.27100  0.35677  1.0000
  I   I30       1.0  0.80676  0.46324  0.95417  1.0000
  I   I31       1.0  0.77086  0.40417  0.22393  1.0000
  I   I32       1.0  0.83576  0.99081  0.86717  1.0000
  I   I33       1.0  0.42766  0.85147  0.39022  1.0000
  I   I34       1.0  0.76263  0.27638  0.14082  1.0000
  I   I35       1.0  0.96368  0.48740  0.82202  1.0000
  I   I36       1.0  0.85852  0.73033  0.62344  1.0000
  I   I37       1.0  0.13448  0.17540  0.67945  1.0000
  I   I38       1.0  0.38795  0.23738  0.14119  1.0000
  I   I39       1.0  0.17383  0.24423  0.53288  1.0000
  I   I40       1.0  0.66282  0.59614  0.46656  1.0000
  I   I41       1.0  0.25913  0.73069  0.57169  1.0000
  I   I42       1.0  0.04709  0.59853  0.14600  1.0000
  I   I43       1.0  0.11837  0.91165  0.41667  1.0000
  I   I44       1.0  0.78621  0.73262  0.08767  1.0000
  I   I45       1.0  0.75292  0.38100  0.66221  1.0000
  I   I46       1.0  0.96287  0.06038  0.38034  1.0000
  I   I47       1.0  0.62247  0.20605  0.18310  1.0000
  I   I48       1.0  0.45250  0.56749  0.14920  1.0000
  I   I49       1.0  0.88479  0.85253  0.78599  1.0000
  I   I50       1.0  0.78008  0.06684  0.66098  1.0000
  I   I51       1.0  0.74715  0.08093  0.78434  1.0000
  I   I52       1.0  0.35809  0.53066  0.42830  1.0000
  I   I53       1.0  0.03515  0.75947  0.11296  1.0000
  I   I54       1.0  0.36775  0.04575  0.10583  1.0000
  I   I55       1.0  0.15398  0.83456  0.01983  1.0000
  I   I56       1.0  0.25902  0.54875  0.23348  1.0000
  I   I57       1.0  0.88275  0.16598  0.25774  1.0000
  I   I58       1.0  0.80746  0.99834  0.41613  1.0000
  I   I59       1.0  0.78588  0.03985  0.31465  1.0000
  I   I60       1.0  0.39142  0.67358  0.17581  1.0000
  I   I61       1.0  0.44070  0.17728  0.40623  1.0000
  I   I62       1.0  0.39748  0.17448  0.50554  1.0000
  I   I63       1.0  0.15458  0.23139  0.97906  1.0000
  I   I64       1.0  0.85594  0.31572  0.60657  1.0000
  I   I65       1.0  0.93202  0.15454  0.71703  1.0000
  I   I66       1.0  0.66653  0.27535  0.93349  1.0000
  I   I67       1.0  0.76049  0.82521  0.25244  1.0000
  I   I68       1.0  0.44632  0.09308  0.98468  1.0000
  I   I69       1.0  0.29822  0.53726  0.78571  1.0000
  I   I70       1.0  0.49569  0.97704  0.39422  1.0000
  I   I71       1.0  0.52722  0.76907  0.84100  1.0000
  I   I72       1.0  0.84592  0.88355  0.45245  1.0000
  I   I73       1.0  0.33217  0.60469  0.75003  1.0000
  I   I74       1.0  0.05534  0.47192  0.64531  1.0000
  I   I75       1.0  0.08366  0.39746  0.60896  1.0000
  I   I76       1.0  0.69364  0.59477  0.74895  1.0000
  I   I77       1.0  0.67154  0.61837  0.62330  1.0000
  I   I78       1.0  0.01592  0.24792  0.44786  1.0000
  I   I79       1.0  0.50272  0.83489  0.42390  1.0000
  I   I80       1.0  0.83888  0.40260  0.25969  1.0000
  I   I81       1.0  0.89454  0.94634  0.02253  1.0000
  I   I82       1.0  0.81776  0.70279  0.60840  1.0000
  I   I83       1.0  0.69281  0.31389  0.10514  1.0000
  I   I84       1.0  0.93233  0.55955  0.86058  1.0000
  I   I85       1.0  0.11909  0.23080  0.60458  1.0000
  I   I86       1.0  0.53769  0.17757  0.38836  1.0000
  I   I87       1.0  0.39831  0.26146  0.27096  1.0000
  I   I88       1.0  0.07888  0.53468  0.34334  1.0000
  I   I89       1.0  0.62094  0.60015  0.23192  1.0000
  I   I90       1.0  0.23029  0.70963  0.68111  1.0000
  I   I91       1.0  0.69717  0.36141  0.68375  1.0000
  I   I92       1.0  0.92563  0.13515  0.01664  1.0000
  I   I93       1.0  0.79564  0.70990  0.93770  1.0000
  I   I94       1.0  0.40102  0.53738  0.17547  1.0000
  I   I95       1.0  0.93886  0.97937  0.49843  1.0000
  I   I96       1.0  0.65828  0.17783  0.07415  1.0000
  I   I97       1.0  0.78171  0.88059  0.78529  1.0000
  I   I98       1.0  0.84829  0.91819  0.75138  1.0000
  I   I99       1.0  0.70139  0.09855  0.66698  1.0000
  I   I100      1.0  0.38928  0.50371  0.30736  1.0000
  I   I101      1.0  0.50998  0.44415  0.45995  1.0000
  I   I102      1.0  0.04987  0.74918  0.29626  1.0000
  I   I103      1.0  0.10558  0.81384  0.98290  1.0000
  I   I104      1.0  0.02996  0.95907  0.98013  1.0000
  I   I105      1.0  0.79045  0.16475  0.26345  1.0000
  I   I106      1.0  0.38965  0.78985  0.23906  1.0000
  I   I107      1.0  0.75825  0.98818  0.33091  1.0000
  I   I108      1.0  0.43395  0.70667  0.18429  1.0000
  I   I109      1.0  0.35102  0.82907  0.89775  1.0000
  I   I110      1.0  0.35570  0.24317  0.50053  1.0000
  I   I111      1.0  0.14466  0.20039  0.09560  1.0000
  I   I112      1.0  0.93192  0.48788  0.29156  1.0000
  I   I113      1.0  0.87040  0.22634  0.70666  1.0000
  I   I114      1.0  0.07675  0.55240  0.86707  1.0000
  I   I115      1.0  0.71514  0.91739  0.42677  1.0000
  I   I116      1.0  0.69303  0.82907  0.27666  1.0000
  I   I117      1.0  0.40908  0.10341  0.84627  1.0000
  I   I118      1.0  0.46311  0.94047  0.38441  1.0000
  I   I119      1.0  0.49022  0.91404  0.24772  1.0000
  I   I120      1.0  0.89782  0.81353  0.35441  1.0000
  I   I121      1.0  0.42936  0.49734  0.67131  1.0000
  I   I122      1.0  0.24351  0.27313  0.16767  1.0000
  I   I123      1.0  0.19862  0.39828  0.52133  1.0000
  I   I124      1.0  0.87527  0.47982  0.96452  1.0000
  I   I125      1.0  0.63876  0.67778  0.71235  1.0000
  I   I126      1.0  0.08680  0.20403  0.41370  1.0000
  I   I127      1.0  0.41034  0.86422  0.61171  1.0000
  I   I128      1.0  0.81966  0.46003  0.33856  1.0000
  I   I129      1.0  0.84243  0.01027  0.99323  1.0000
  I   I130      1.0  0.86869  0.58853  0.66047  1.0000
  I   I131      1.0  0.80847  0.78033  0.52709  1.0000
  I   I132      1.0  0.77466  0.32194  0.05529  1.0000
  I   I133      1.0  0.46826  0.23239  0.21112  1.0000
  I   I134      1.0  0.54863  0.23468  0.35859  1.0000
  I   I135      1.0  0.49161  0.29571  0.32169  1.0000
  I   I136      1.0  0.24832  0.74097  0.75296  1.0000
  I   I137      1.0  0.03158  0.57122  0.25388  1.0000
  I   I138      1.0  0.59936  0.65488  0.46765  1.0000
  I   I139      1.0  0.77657  0.40157  0.78943  1.0000
  I   I140      1.0  0.97816  0.06351  0.06944  1.0000
  I   I141      1.0  0.82007  0.66925  0.04026  1.0000
  I   I142      1.0  0.33690  0.62070  0.00462  1.0000
  I   I143      1.0  0.91050  0.04130  0.34142  1.0000
  I   I144      1.0  0.57669  0.28161  0.15659  1.0000
  I   I145      1.0  0.91770  0.90720  0.66389  1.0000
  I   I146      1.0  0.67242  0.02461  0.66625  1.0000
  I   I147      1.0  0.82087  0.84271  0.88215  1.0000
  I   I148      1.0  0.46748  0.42866  0.52869  1.0000
  I   I149      1.0  0.96979  0.76527  0.18842  1.0000
  I   I150      1.0  0.37208  0.96797  0.12230  1.0000
  I   I151      1.0  0.05862  0.90521  0.86898  1.0000
  I   I152      1.0  0.29161  0.63240  0.18524  1.0000
  I   I153      1.0  0.75277  0.23672  0.31928  1.0000
  I   I154      1.0  0.07529  0.99221  0.27352  1.0000
  I   I155      1.0  0.11414  0.66104  0.96932  1.0000
  I   I156      1.0  0.38769  0.72687  0.29522  1.0000
  I   I157      1.0  0.34590  0.78845  0.00299  1.0000
  I   I158      1.0  0.17597  0.16335  0.93325  1.0000
  I   I159      1.0  0.31652  0.73480  0.94975  1.0000
  I   I160      1.0  0.98379  0.50396  0.44932  1.0000
  I   I161      1.0  0.10714  0.48664  0.93624  1.0000
  I   I162      1.0  0.91527  0.49517  0.49766  1.0000
  I   I163      1.0  0.73495  0.84907  0.38109  1.0000
  I   I164      1.0  0.49009  0.09881  0.89105  1.0000
  I   I165      1.0  0.32249  0.46201  0.74774  1.0000
  I   I166      1.0  0.49331  0.93610  0.50816  1.0000
  I   I167      1.0  0.55465  0.83031  0.84501  1.0000
  I   I168      1.0  0.41249  0.06812  0.51552  1.0000
  I   I169      1.0  0.17738  0.33035  0.20392  1.0000
  I   I170      1.0  0.19480  0.33817  0.38672  1.0000
  I   I171      1.0  0.42652  0.58914  0.71502  1.0000
  I   I172      1.0  0.81051  0.53007  0.89487  1.0000
  I   I173      1.0  0.07695  0.19877  0.27002  1.0000
  I   I174      1.0  0.85136  0.39665  0.83192  1.0000
  I   I175      1.0  0.77634  0.48287  0.25552  1.0000
  I   I176      1.0  0.90841  0.95052  0.89306  1.0000
  I   I177      1.0  0.44313  0.88532  0.49317  1.0000
  I   I178      1.0  0.87699  0.75328  0.49412  1.0000
  I   I179      1.0  0.71756  0.32115  0.01039  1.0000
  I   I180      1.0  0.93377  0.57375  0.70430  1.0000
  I   I181      1.0  0.11578  0.14204  0.59759  1.0000
  I   I182      1.0  0.59558  0.18149  0.44806  1.0000
  I   I183      1.0  0.44558  0.23069  0.09031  1.0000
  I   I184      1.0  0.08080  0.50396  0.22060  1.0000
  I   I185      1.0  0.65999  0.65495  0.41009  1.0000
  I   I186      1.0  0.17175  0.78949  0.64311  1.0000
  I   I187      1.0  0.93469  0.06676  0.95719  1.0000
  I   I188      1.0  0.76525  0.66430  0.94840  1.0000
  I   I189      1.0  0.69903  0.44161  0.65516  1.0000
  I   I190      1.0  0.95330  0.05559  0.24855  1.0000
  I   I191      1.0  0.60196  0.15823  0.07914  1.0000
  I   I192      1.0  0.42219  0.59403  0.03458  1.0000
  I   I193      1.0  0.85899  0.96473  0.63167  1.0000
  I   I194      1.0  0.56419  0.13321  0.13628  1.0000
  I   I195      1.0  0.75353  0.84690  0.89294  1.0000
  I   I196      1.0  0.44309  0.49735  0.52362  1.0000
  I   I197      1.0  0.14509  0.95283  0.27374  1.0000
  I   I198      1.0  0.37724  0.03774  0.26030  1.0000
  I   I199      1.0  0.09741  0.89475  0.96569  1.0000
  I   I200      1.0  0.22355  0.68810  0.16626  1.0000
  I   I201      1.0  0.80289  0.21158  0.41967  1.0000
  I   I202      1.0  0.77590  0.10288  0.34667  1.0000
  I   I203      1.0  0.25607  0.46440  0.79202  1.0000
  I   I204      1.0  0.37552  0.69984  0.05444  1.0000
  I   I205      1.0  0.41877  0.28152  0.52431  1.0000
  I   I206      1.0  0.20805  0.14356  0.06540  1.0000
  I   I207      1.0  0.26323  0.77239  0.00747  1.0000
  I   I208      1.0  0.85803  0.25542  0.56934  1.0000
  I   I209      1.0  0.13643  0.54361  0.96437  1.0000
  I   I210      1.0  0.98935  0.46059  0.55068  1.0000
  I   I211      1.0  0.70347  0.89317  0.23967  1.0000
  I   I212      1.0  0.50260  0.03106  0.92962  1.0000
  I   I213      1.0  0.34237  0.50448  0.88899  1.0000
  I   I214      1.0  0.53852  0.88422  0.35751  1.0000
  I   I215      1.0  0.53716  0.80442  0.94528  1.0000
  I   I216      1.0  0.36101  0.06515  0.45151  1.0000
  I   I217      1.0  0.13657  0.34038  0.32761  1.0000
  I   I218      1.0  0.20981  0.35498  0.62355  1.0000
  I   I219      1.0  0.38236  0.56825  0.67814  1.0000
  I   I220      1.0  0.56032  0.64039  0.76595  1.0000
  I   I221      1.0  0.05181  0.17822  0.37907  1.0000
  I   I222      1.0  0.78844  0.42204  0.90358  1.0000
  I   I223      1.0  0.79738  0.44547  0.14904  1.0000
  I   I224      1.0  0.84869  0.04564  0.10435  1.0000
  I   I225      1.0  0.37940  0.89788  0.47835  1.0000
  I   I226      1.0  0.90663  0.69018  0.53158  1.0000
  I   I227      1.0  0.72582  0.35722  0.15007  1.0000
  I   I228      1.0  0.91795  0.51997  0.72705  1.0000
  I   I229      1.0  0.19318  0.19082  0.63716  1.0000
  I   I230      1.0  0.47793  0.31340  0.43600  1.0000
  I   I231      1.0  0.35933  0.30411  0.07135  1.0000
  I   I232      1.0  0.15114  0.50478  0.27870  1.0000
  I   I233      1.0  0.62305  0.65021  0.31391  1.0000
  I   I234      1.0  0.18779  0.75404  0.52463  1.0000
  I   I235      1.0  0.14978  0.95882  0.38541  1.0000
  I   I236      1.0  0.73729  0.75283  0.87860  1.0000
  I   I237      1.0  0.76407  0.44266  0.66868  1.0000
  I   I238      1.0  0.96694  0.98756  0.39138  1.0000
  I   I239      1.0  0.56462  0.23322  0.08971  1.0000
  I   I240      1.0  0.39436  0.56272  0.95618  1.0000
  I   I241      1.0  0.94618  0.83825  0.71595  1.0000
  I   I242      1.0  0.75733  0.02113  0.65347  1.0000
  I   I243      1.0  0.80583  0.79915  0.77662  1.0000
  I   I244      1.0  0.41520  0.53801  0.41788  1.0000
  I   I245      1.0  0.05351  0.70537  0.20271  1.0000
  I   I246      1.0  0.42873  0.98453  0.15349  1.0000
  I   I247      1.0  0.04794  0.87668  0.03734  1.0000
  I   I248      1.0  0.22811  0.63017  0.23267  1.0000
  I   I249      1.0  0.83971  0.15002  0.33449  1.0000
  I   I250      1.0  0.71221  0.06326  0.32907  1.0000
  I   I251      1.0  0.05450  0.68713  0.89569  1.0000
  I   I252      1.0  0.38268  0.75261  0.11751  1.0000
  I   I253      1.0  0.37189  0.26929  0.61534  1.0000
  I   I254      1.0  0.10330  0.27748  0.08119  1.0000
  I   I255      1.0  0.28939  0.79539  0.90545  1.0000
  I   I256      1.0  0.96655  0.18855  0.69179  1.0000
  I   I257      1.0  0.14364  0.50357  0.84441  1.0000
  I   I258      1.0  0.95733  0.41217  0.31779  1.0000
  I   I259      1.0  0.74601  0.90059  0.30902  1.0000
  I   I260      1.0  0.45066  0.14106  0.77757  1.0000
  I   I261      1.0  0.30647  0.46706  0.87935  1.0000
  I   I262      1.0  0.53165  0.94583  0.28531  1.0000
  I   I263      1.0  0.50151  0.84105  0.77672  1.0000
  I   I264      1.0  0.38290  0.02384  0.57404  1.0000
  I   I265      1.0  0.15404  0.39013  0.31470  1.0000
  I   I266      1.0  0.14625  0.40963  0.65985  1.0000
  I   I267      1.0  0.44261  0.54997  0.60997  1.0000
  I   I268      1.0  0.62864  0.63014  0.81841  1.0000
  I   I269      1.0  0.95373  0.27348  0.39065  1.0000
  I   I270      1.0  0.81024  0.50732  0.03017  1.0000
  I   I271      1.0  0.74798  0.44371  0.32157  1.0000
  I   I272      1.0  0.86629  0.97796  0.15420  1.0000
  I   I273      1.0  0.42327  0.81265  0.49320  1.0000
  I   I274      1.0  0.87510  0.64072  0.55011  1.0000
  I   I275      1.0  0.73375  0.36574  0.93940  1.0000
  I   I276      1.0  0.86858  0.56741  0.81658  1.0000
  I   I277      1.0  0.06768  0.21508  0.63560  1.0000
  I   I278      1.0  0.53080  0.25121  0.48539  1.0000
  I   I279      1.0  0.42131  0.28454  0.01202  1.0000
  I   I280      1.0  0.04921  0.54391  0.10717  1.0000
  I   I281      1.0  0.60079  0.60796  0.39402  1.0000
  I   I282      1.0  0.30823  0.71984  0.67606  1.0000
  I   I283      1.0  0.06929  0.00628  0.40336  1.0000
  I   I284      1.0  0.72744  0.74966  0.00692  1.0000
  I   I285      1.0  0.69965  0.44618  0.78142  1.0000
  I   I286      1.0  0.99967  0.98716  0.28529  1.0000
  I   I287      1.0  0.61874  0.18725  0.96880  1.0000
  I   I288      1.0  0.45338  0.52489  0.06484  1.0000
  I   I289      1.0  0.91895  0.88495  0.81006  1.0000
  I   I290      1.0  0.62918  0.07274  0.17827  1.0000
  I   I291      1.0  0.70829  0.03929  0.74964  1.0000
  I   I292      1.0  0.46010  0.47784  0.37052  1.0000
  I   I293      1.0  0.95922  0.81102  0.08342  1.0000
  I   I294      1.0  0.32779  0.02828  0.16507  1.0000
  I   I295      1.0  0.09867  0.87490  0.11340  1.0000
  I   I296      1.0  0.19544  0.63926  0.13576  1.0000
  I   I297      1.0  0.87099  0.10915  0.25088  1.0000
  I   I298      1.0  0.12341  0.89971  0.29352  1.0000
  I   I299      1.0  0.74714  0.06361  0.43169  1.0000
  I   I300      1.0  0.44436  0.66864  0.06673  1.0000
  I   I301      1.0  0.32100  0.86148  0.02808  1.0000
  I   I302      1.0  0.34809  0.31885  0.49925  1.0000
  I   I303      1.0  0.11210  0.19411  0.99282  1.0000
  I   I304      1.0  0.98642  0.45697  0.37864  1.0000
  I   I305      1.0  0.82282  0.30333  0.70847  1.0000
  I   I306      1.0  0.59813  0.29975  0.85030  1.0000
  I   I307      1.0  0.66943  0.96039  0.32733  1.0000
  I   I308      1.0  0.44009  0.03351  0.89857  1.0000
  I   I309      1.0  0.37936  0.45249  0.81819  1.0000
  I   I310      1.0  0.46113  0.99806  0.53355  1.0000
  I   I311      1.0  0.45441  0.84315  0.03512  1.0000
  I   I312      1.0  0.89773  0.87690  0.32935  1.0000
  I   I313      1.0  0.35757  0.64481  0.66839  1.0000
  I   I314      1.0  0.20322  0.28724  0.31121  1.0000
  I   I315      1.0  0.15982  0.35552  0.54805  1.0000
  I   I316      1.0  0.78202  0.46379  0.79068  1.0000
  I   I317      1.0  0.56515  0.69194  0.74429  1.0000
  I   I318      1.0  0.97223  0.32131  0.34968  1.0000
  I   I319      1.0  0.47698  0.82000  0.53684  1.0000
  I   I320      1.0  0.81068  0.38842  0.35997  1.0000
  I   I321      1.0  0.91064  0.99660  0.05588  1.0000
  I   I322      1.0  0.89564  0.66132  0.65241  1.0000
  I   I323      1.0  0.67500  0.38350  0.06012  1.0000
  I   I324      1.0  0.91517  0.50405  0.89133  1.0000
  I   I325      1.0  0.21480  0.16806  0.50048  1.0000
  I   I326      1.0  0.53445  0.18794  0.52927  1.0000
  I   I327      1.0  0.38713  0.24114  0.98038  1.0000
  I   I328      1.0  0.11962  0.53389  0.15900  1.0000
  I   I329      1.0  0.67791  0.59313  0.32123  1.0000
  I   I330      1.0  0.24274  0.78275  0.64107  1.0000
  I   I331      1.0  0.65057  0.42569  0.71386  1.0000
  I   I332      1.0  0.10726  0.03432  0.32526  1.0000
  I   I333      1.0  0.75308  0.68789  0.07867  1.0000
  I   I334      1.0  0.35606  0.56516  0.07047  1.0000
  I   I335      1.0  0.87691  0.99996  0.41109  1.0000
  I   I336      1.0  0.64928  0.25253  0.12303  1.0000
  I   I337      1.0  0.82445  0.92510  0.61354  1.0000
  I   I338      1.0  0.60851  0.08260  0.03750  1.0000
  I   I339      1.0  0.75027  0.96493  0.73168  1.0000
  I   I340      1.0  0.41815  0.45486  0.42364  1.0000
  I   I341      1.0  0.02224  0.80767  0.19268  1.0000
  I   I342      1.0  0.35683  0.09412  0.17391  1.0000
  I   I343      1.0  0.99692  0.91845  0.94932  1.0000
  I   I344      1.0  0.18855  0.58714  0.22620  1.0000
  I   I345      1.0  0.83632  0.16783  0.15487  1.0000
  I   I346      1.0  0.18735  0.88135  0.37456  1.0000
  I   I347      1.0  0.73220  0.10310  0.25574  1.0000
  I   I348      1.0  0.33508  0.77249  0.20707  1.0000
  I   I349      1.0  0.27566  0.86915  0.92169  1.0000
  I   I350      1.0  0.39810  0.25581  0.42824  1.0000
  I   I351      1.0  0.15127  0.13084  0.04978  1.0000
  I   I352      1.0  0.89897  0.46128  0.37737  1.0000
  I   I353      1.0  0.92457  0.18074  0.59672  1.0000
  I   I354      1.0  0.62217  0.34805  0.89311  1.0000
  I   I355      1.0  0.66356  0.89713  0.35617  1.0000
  I   I356      1.0  0.47606  0.05482  0.81730  1.0000
  I   I357      1.0  0.31389  0.39553  0.85352  1.0000
  I   I358      1.0  0.42488  0.01972  0.41333  1.0000
  I   I359      1.0  0.50829  0.77325  0.01540  1.0000
  I   I360      1.0  0.91934  0.84503  0.46507  1.0000
  I   I361      1.0  0.38035  0.63198  0.80410  1.0000
  I   I362      1.0  0.27102  0.25935  0.28086  1.0000
  I   I363      1.0  0.09088  0.41741  0.74453  1.0000
  I   I364      1.0  0.85279  0.45860  0.87462  1.0000
  I   I365      1.0  0.62940  0.59216  0.72120  1.0000
  I   I366      1.0  0.01051  0.24523  0.29681  1.0000
  I   I367      1.0  0.48049  0.78218  0.39871  1.0000
  I   I368      1.0  0.72116  0.46944  0.17233  1.0000
  I   I369      1.0  0.85524  0.92660  0.93342  1.0000
  I   I370      1.0  0.85085  0.70148  0.47115  1.0000
  I   I371      1.0  0.74132  0.39320  0.06468  1.0000
  I   I372      1.0  0.87933  0.62376  0.76841  1.0000
  I   I373      1.0  0.15831  0.16461  0.53139  1.0000
  I   I374      1.0  0.47554  0.25065  0.38268  1.0000
  I   I375      1.0  0.41498  0.29298  0.14761  1.0000
  I   I376      1.0  0.09263  0.57527  0.24808  1.0000
  I   I377      1.0  0.65770  0.54391  0.30933  1.0000
  I   I378      1.0  0.20898  0.80237  0.51387  1.0000
  I   I379      1.0  0.72747  0.37633  0.78115  1.0000
  I   I380      1.0  0.98734  0.09151  0.92991  1.0000
  I   I381      1.0  0.70368  0.71652  0.90586  1.0000
  I   I382      1.0  0.37348  0.60947  0.12305  1.0000
  I   I383      1.0  0.89537  0.05458  0.47323  1.0000
  I   I384      1.0  0.61759  0.24265  0.02256  1.0000
