data_image0
_chemical_formula_structural       Ti96I384
_chemical_formula_sum              "Ti96 I384"
_cell_length_a       75.573
_cell_length_b       75.4753
_cell_length_c       36.9369
_cell_angle_alpha    88.7757
_cell_angle_beta     88.7757
_cell_angle_gamma    62.1586

_space_group_name_H-M_alt    "P 1"
_space_group_IT_number       1

loop_
  _space_group_symop_operation_xyz
  'x, y, z'

loop_
  _atom_site_type_symbol
  _atom_site_label
  _atom_site_symmetry_multiplicity
  _atom_site_fract_x
  _atom_site_fract_y
  _atom_site_fract_z
  _atom_site_occupancy
  Ti  Ti1       1.0  0.68547  0.23392  0.90200  1.0000
  Ti  Ti2       1.0  0.46885  0.72476  0.58861  1.0000
  Ti  Ti3       1.0  0.13887  0.05264  0.32815  1.0000
  Ti  Ti4       1.0  0.16288  0.15600  0.04726  1.0000
  Ti  Ti5       1.0  0.25784  0.07175  0.89580  1.0000
  Ti  Ti6       1.0  0.39722  0.59880  0.28259  1.0000
  Ti  Ti7       1.0  0.71031  0.98698  0.12012  1.0000
  Ti  Ti8       1.0  0.33578  0.75145  0.26785  1.0000
  Ti  Ti9       1.0  0.16601  0.51176  0.67410  1.0000
  Ti  Ti10      1.0  0.51286  0.74515  0.39891  1.0000
  Ti  Ti11      1.0  0.32473  0.91747  0.85016  1.0000
  Ti  Ti12      1.0  0.88848  0.11120  0.18771  1.0000
  Ti  Ti13      1.0  0.76423  0.72625  0.56281  1.0000
  Ti  Ti14      1.0  0.18323  0.19913  0.01686  1.0000
  Ti  Ti15      1.0  0.82811  0.44708  0.81238  1.0000
  Ti  Ti16      1.0  0.28562  0.64328  0.37262  1.0000
  Ti  Ti17      1.0  0.16329  0.82160  0.59895  1.0000
  Ti  Ti18      1.0  0.43628  0.07643  0.46160  1.0000
  Ti  Ti19      1.0  0.82406  0.22484  0.83918  1.0000
  Ti  Ti20      1.0  0.13123  0.55215  0.88590  1.0000
  Ti  Ti21      1.0  0.32621  0.75166  0.18671  1.0000
  Ti  Ti22      1.0  0.70126  0.37065  0.76785  1.0000
  Ti  Ti23      1.0  0.33557  0.59998  0.87938  1.0000
  Ti  Ti24      1.0  0.74833  0.27680  0.43749  1.0000
  Ti  Ti25      1.0  0.73857  0.52204  0.26830  1.0000
  Ti  Ti26      1.0  0.00849  0.83137  0.78529  1.0000
  Ti  Ti27      1.0  0.44146  0.55677  0.99440  1.0000
  Ti  Ti28      1.0  0.54715  0.15701  0.85487  1.0000
  Ti  Ti29      1.0  0.12961  0.04125  0.11154  1.0000
  Ti  Ti30      1.0  0.18403  0.84726  0.10952  1.0000
  Ti  Ti31      1.0  0.64705  0.30341  0.05926  1.0000
  Ti  Ti32      1.0  0.51159  0.74257  0.06803  1.0000
  Ti  Ti33      1.0  0.60893  0.24338  0.76734  1.0000
  Ti  Ti34      1.0  0.85067  0.54560  0.17059  1.0000
  Ti  Ti35      1.0  0.59191  0.82036  0.13455  1.0000
  Ti  Ti36      1.0  0.26880  0.21575  0.51391  1.0000
  Ti  Ti37      1.0  0.98371  0.50820  0.75420  1.0000
  Ti  Ti38      1.0  0.25044  0.43930  0.45671  1.0000
  Ti  Ti39      1.0  0.96329  0.19929  0.69631  1.0000
  Ti  Ti40      1.0  0.55773  0.76056  0.31243  1.0000
  Ti  Ti41      1.0  0.86218  0.56346  0.26775  1.0000
  Ti  Ti42      1.0  0.78135  0.81633  0.30767  1.0000
  Ti  Ti43      1.0  0.02092  0.84125  0.49626  1.0000
  Ti  Ti44      1.0  0.79248  0.31883  0.31823  1.0000
  Ti  Ti45      1.0  0.62355  0.96976  0.22599  1.0000
  Ti  Ti46      1.0  0.84759  0.78753  0.04379  1.0000
  Ti  Ti47      1.0  0.08969  0.89326  0.85961  1.0000
  Ti  Ti48      1.0  0.99568  0.08638  0.67339  1.0000
  Ti  Ti49      1.0  0.03524  0.87559  0.45267  1.0000
  Ti  Ti50      1.0  0.07597  0.22456  0.27652  1.0000
  Ti  Ti51      1.0  0.48814  0.67385  0.60515  1.0000
  Ti  Ti52      1.0  0.46853  0.39195  0.90247  1.0000
  Ti  Ti53      1.0  0.30965  0.78199  0.75758  1.0000
  Ti  Ti54      1.0  0.40192  0.92713  0.11639  1.0000
  Ti  Ti55      1.0  0.47879  0.73805  0.15935  1.0000
  Ti  Ti56      1.0  0.70488  0.82711  0.88802  1.0000
  Ti  Ti57      1.0  0.15109  0.48169  0.67776  1.0000
  Ti  Ti58      1.0  0.36786  0.01713  0.23498  1.0000
  Ti  Ti59      1.0  0.39916  0.61085  0.53482  1.0000
  Ti  Ti60      1.0  0.99202  0.17420  0.25002  1.0000
  Ti  Ti61      1.0  0.72446  0.88179  0.64557  1.0000
  Ti  Ti62      1.0  0.77550  0.70003  0.62003  1.0000
  Ti  Ti63      1.0  0.15284  0.57420  0.86632  1.0000
  Ti  Ti64      1.0  0.47388  0.06673  0.42909  1.0000
  Ti  Ti65      1.0  0.86232  0.00055  0.38357  1.0000
  Ti  Ti66      1.0  0.34698  0.24248  0.14797  1.0000
  Ti  Ti67      1.0  0.26104  0.12052  0.35559  1.0000
  Ti  Ti68      1.0  0.53713  0.23690  0.15093  1.0000
  Ti  Ti69      1.0  0.94773  0.84089  0.76401  1.0000
  Ti  Ti70      1.0  0.22754  0.10169  0.37074  1.0000
  Ti  Ti71      1.0  0.04673  0.71643  0.14082  1.0000
  Ti  Ti72      1.0  0.10665  0.88288  0.98122  1.0000
  Ti  Ti73      1.0  0.48620  0.56661  0.03538  1.0000
  Ti  Ti74      1.0  0.70444  0.54832  0.22456  1.0000
  Ti  Ti75      1.0  0.36937  0.30557  0.04127  1.0000
  Ti  Ti76      1.0  0.39950  0.04317  0.70151  1.0000
  Ti  Ti77      1.0  0.86329  0.39886  0.81666  1.0000
  Ti  Ti78      1.0  0.16903  0.05174  0.14212  1.0000
  Ti  Ti79      1.0  0.32389  0.94299  0.52083  1.0000
  Ti  Ti80      1.0  0.49017  0.93960  0.96217  1.0000
  Ti  Ti81      1.0  0.95710  0.68017  0.09920  1.0000
  Ti  Ti82      1.0  0.73521  0.44100  0.57891  1.0000
  Ti  Ti83      1.0  0.12259  0.36613  0.51294  1.0000
  Ti  Ti84      1.0  0.31375  0.22592  0.49939  1.0000
  Ti  Ti85      1.0  0.01148  0.47762  0.72476  1.0000
  Ti  Ti86      1.0  0.74078  0.02347  0.10320  1.0000
  Ti  Ti87      1.0  0.60254  0.99750  0.14820  1.0000
  Ti  Ti88      1.0  0.35513  0.41236  0.92952  1.0000
  Ti  Ti89      1.0  0.22226  0.48897  0.10411  1.0000
  Ti  Ti90      1.0  0.98515  0.46651  0.09376  1.0000
  Ti  Ti91      1.0  0.98342  0.01096  0.32147  1.0000
  Ti  Ti92      1.0  0.54663  0.35803  0.37253  1.0000
  Ti  Ti93      1.0  0.49360  0.56945  0.50792  1.0000
  Ti  Ti94      1.0  0.95614  0.11625  0.68879  1.0000
  Ti  Ti95      1.0  0.08291  0.29762  0.30100  1.0000
  Ti  Ti96      1.0  0.74543  0.32132  0.81512  1.0000
  I   I1        1.0  0.12451  0.88498  0.90889  1.0000
  I   I2        1.0  0.48853  0.70574  0.65688  1.0000
  I   I3        1.0  0.07247  0.84106  0.43517  1.0000
  I   I4        1.0  0.33657  0.79770  0.75755  1.0000
  I   I5        1.0  0.36799  0.63769  0.28315  1.0000
  I   I6        1.0  0.36473  0.93537  0.11531  1.0000
  I   I7        1.0  0.30311  0.78506  0.26545  1.0000
  I   I8        1.0  0.67587  0.86244  0.89231  1.0000
  I   I9        1.0  0.12990  0.51875  0.71192  1.0000
  I   I10       1.0  0.53431  0.71577  0.34961  1.0000
  I   I11       1.0  0.29641  0.93306  0.90368  1.0000
  I   I12       1.0  0.25885  0.03701  0.90195  1.0000
  I   I13       1.0  0.73601  0.73450  0.62375  1.0000
  I   I14       1.0  0.11642  0.60322  0.87213  1.0000
  I   I15       1.0  0.89961  0.38675  0.84086  1.0000
  I   I16       1.0  0.56548  0.74535  0.37952  1.0000
  I   I17       1.0  0.32940  0.24995  0.21247  1.0000
  I   I18       1.0  0.44789  0.06813  0.38326  1.0000
  I   I19       1.0  0.13839  0.51532  0.91497  1.0000
  I   I20       1.0  0.28981  0.93911  0.81379  1.0000
  I   I21       1.0  0.36246  0.72251  0.21675  1.0000
  I   I22       1.0  0.30603  0.63472  0.85318  1.0000
  I   I23       1.0  0.08530  0.69863  0.14792  1.0000
  I   I24       1.0  0.21984  0.13723  0.38039  1.0000
  I   I25       1.0  0.76375  0.52180  0.32080  1.0000
  I   I26       1.0  0.38911  0.29002  0.09747  1.0000
  I   I27       1.0  0.43627  0.52348  0.99797  1.0000
  I   I28       1.0  0.55419  0.17269  0.91205  1.0000
  I   I29       1.0  0.20592  0.04144  0.16215  1.0000
  I   I30       1.0  0.19580  0.85607  0.04998  1.0000
  I   I31       1.0  0.50351  0.90401  0.93391  1.0000
  I   I32       1.0  0.92858  0.71894  0.09679  1.0000
  I   I33       1.0  0.35759  0.93048  0.46731  1.0000
  I   I34       1.0  0.60829  0.78276  0.11682  1.0000
  I   I35       1.0  0.32698  0.24833  0.46993  1.0000
  I   I36       1.0  0.81173  0.54902  0.15564  1.0000
  I   I37       1.0  0.01804  0.44810  0.68320  1.0000
  I   I38       1.0  0.93221  0.23372  0.70396  1.0000
  I   I39       1.0  0.03393  0.45055  0.77172  1.0000
  I   I40       1.0  0.82697  0.31539  0.28899  1.0000
  I   I41       1.0  0.00088  0.43494  0.05541  1.0000
  I   I42       1.0  0.55782  0.79232  0.33133  1.0000
  I   I43       1.0  0.33654  0.03867  0.27293  1.0000
  I   I44       1.0  0.79870  0.28097  0.31303  1.0000
  I   I45       1.0  0.62331  0.95045  0.16564  1.0000
  I   I46       1.0  0.09688  0.31528  0.34678  1.0000
  I   I47       1.0  0.07695  0.92623  0.82451  1.0000
  I   I48       1.0  0.96926  0.08622  0.62361  1.0000
  I   I49       1.0  0.02138  0.83149  0.56123  1.0000
  I   I50       1.0  0.44939  0.70134  0.62016  1.0000
  I   I51       1.0  0.45133  0.73536  0.52586  1.0000
  I   I52       1.0  0.47535  0.94357  0.02967  1.0000
  I   I53       1.0  0.32098  0.75078  0.71983  1.0000
  I   I54       1.0  0.40388  0.95190  0.06463  1.0000
  I   I55       1.0  0.74120  0.98992  0.07465  1.0000
  I   I56       1.0  0.34434  0.77816  0.19547  1.0000
  I   I57       1.0  0.04667  0.32911  0.28881  1.0000
  I   I58       1.0  0.51845  0.76992  0.30768  1.0000
  I   I59       1.0  0.36526  0.63280  0.56862  1.0000
  I   I60       1.0  0.97375  0.16634  0.19359  1.0000
  I   I61       1.0  0.79349  0.71064  0.51608  1.0000
  I   I62       1.0  0.81369  0.67313  0.60330  1.0000
  I   I63       1.0  0.17023  0.58986  0.89838  1.0000
  I   I64       1.0  0.30440  0.62807  0.31238  1.0000
  I   I65       1.0  0.85675  0.99092  0.45007  1.0000
  I   I66       1.0  0.38419  0.23414  0.17701  1.0000
  I   I67       1.0  0.81838  0.23773  0.90571  1.0000
  I   I68       1.0  0.12232  0.57135  0.95372  1.0000
  I   I69       1.0  0.92163  0.83376  0.80882  1.0000
  I   I70       1.0  0.23639  0.09567  0.29254  1.0000
  I   I71       1.0  0.33436  0.57355  0.83776  1.0000
  I   I72       1.0  0.09515  0.85506  0.97708  1.0000
  I   I73       1.0  0.45611  0.58046  0.96090  1.0000
  I   I74       1.0  0.02862  0.81124  0.84606  1.0000
  I   I75       1.0  0.99863  0.86815  0.79308  1.0000
  I   I76       1.0  0.87010  0.41718  0.75342  1.0000
  I   I77       1.0  0.79358  0.45600  0.84049  1.0000
  I   I78       1.0  0.69024  0.26555  0.87031  1.0000
  I   I79       1.0  0.61735  0.24490  0.82970  1.0000
  I   I80       1.0  0.67493  0.27682  0.02467  1.0000
  I   I81       1.0  0.50193  0.74997  0.00117  1.0000
  I   I82       1.0  0.70981  0.44199  0.52366  1.0000
  I   I83       1.0  0.11394  0.34492  0.55736  1.0000
  I   I84       1.0  0.29107  0.22390  0.56009  1.0000
  I   I85       1.0  0.00567  0.51717  0.80577  1.0000
  I   I86       1.0  0.32023  0.23717  0.11277  1.0000
  I   I87       1.0  0.94806  0.17434  0.71029  1.0000
  I   I88       1.0  0.53426  0.71273  0.43828  1.0000
  I   I89       1.0  0.88850  0.57360  0.26699  1.0000
  I   I90       1.0  0.00731  0.47338  0.14006  1.0000
  I   I91       1.0  0.01438  0.98191  0.29578  1.0000
  I   I92       1.0  0.52806  0.34037  0.39827  1.0000
  I   I93       1.0  0.76445  0.34848  0.28583  1.0000
  I   I94       1.0  0.97693  0.13033  0.64454  1.0000
  I   I95       1.0  0.84220  0.76518  0.09484  1.0000
  I   I96       1.0  0.74514  0.35628  0.78470  1.0000
  I   I97       1.0  0.17759  0.03085  0.32459  1.0000
  I   I98       1.0  0.65978  0.22854  0.95088  1.0000
  I   I99       1.0  0.48597  0.68236  0.53570  1.0000
  I   I100      1.0  0.12442  0.18555  0.04739  1.0000
  I   I101      1.0  0.36389  0.41814  0.86136  1.0000
  I   I102      1.0  0.22751  0.09010  0.93742  1.0000
  I   I103      1.0  0.69940  0.02918  0.12774  1.0000
  I   I104      1.0  0.47719  0.73606  0.09085  1.0000
  I   I105      1.0  0.15201  0.50176  0.60809  1.0000
  I   I106      1.0  0.89568  0.10784  0.11412  1.0000
  I   I107      1.0  0.50908  0.77266  0.44089  1.0000
  I   I108      1.0  0.90729  0.12908  0.20964  1.0000
  I   I109      1.0  0.82773  0.41700  0.76905  1.0000
  I   I110      1.0  0.77310  0.75593  0.54886  1.0000
  I   I111      1.0  0.15693  0.53923  0.81112  1.0000
  I   I112      1.0  0.50162  0.07630  0.39771  1.0000
  I   I113      1.0  0.90169  0.97828  0.39925  1.0000
  I   I114      1.0  0.13130  0.83117  0.55639  1.0000
  I   I115      1.0  0.29478  0.10355  0.32027  1.0000
  I   I116      1.0  0.25256  0.14170  0.29292  1.0000
  I   I117      1.0  0.51441  0.27748  0.16606  1.0000
  I   I118      1.0  0.70615  0.34588  0.83537  1.0000
  I   I119      1.0  0.25871  0.09446  0.40843  1.0000
  I   I120      1.0  0.09111  0.89795  0.04470  1.0000
  I   I121      1.0  0.51260  0.56153  0.98503  1.0000
  I   I122      1.0  0.69866  0.53186  0.28903  1.0000
  I   I123      1.0  0.38587  0.32634  0.00464  1.0000
  I   I124      1.0  0.19059  0.86917  0.15827  1.0000
  I   I125      1.0  0.38590  0.06708  0.65046  1.0000
  I   I126      1.0  0.15004  0.07656  0.19619  1.0000
  I   I127      1.0  0.60489  0.21272  0.78361  1.0000
  I   I128      1.0  0.20326  0.15137  0.05118  1.0000
  I   I129      1.0  0.94867  0.66813  0.15667  1.0000
  I   I130      1.0  0.32001  0.19583  0.45749  1.0000
  I   I131      1.0  0.74213  0.40348  0.58756  1.0000
  I   I132      1.0  0.58272  0.83807  0.07084  1.0000
  I   I133      1.0  0.98852  0.20709  0.72419  1.0000
  I   I134      1.0  0.25176  0.41205  0.50482  1.0000
  I   I135      1.0  0.34113  0.27653  0.12496  1.0000
  I   I136      1.0  0.81976  0.80288  0.29454  1.0000
  I   I137      1.0  0.44428  0.40486  0.95438  1.0000
  I   I138      1.0  0.20832  0.49363  0.16789  1.0000
  I   I139      1.0  0.99618  0.02541  0.37304  1.0000
  I   I140      1.0  0.57152  0.33977  0.32029  1.0000
  I   I141      1.0  0.46101  0.56791  0.48530  1.0000
  I   I142      1.0  0.95959  0.08154  0.72469  1.0000
  I   I143      1.0  0.12717  0.02744  0.35394  1.0000
  I   I144      1.0  0.69768  0.39713  0.72445  1.0000
  I   I145      1.0  0.71398  0.21374  0.94013  1.0000
  I   I146      1.0  0.44479  0.75025  0.63508  1.0000
  I   I147      1.0  0.11981  0.09413  0.31357  1.0000
  I   I148      1.0  0.46806  0.36091  0.87597  1.0000
  I   I149      1.0  0.25439  0.09491  0.84184  1.0000
  I   I150      1.0  0.40921  0.58167  0.34423  1.0000
  I   I151      1.0  0.48893  0.77152  0.11993  1.0000
  I   I152      1.0  0.33067  0.72575  0.31505  1.0000
  I   I153      1.0  0.15774  0.54418  0.63467  1.0000
  I   I154      1.0  0.02901  0.87781  0.52665  1.0000
  I   I155      1.0  0.34944  0.87622  0.85651  1.0000
  I   I156      1.0  0.00935  0.13782  0.27628  1.0000
  I   I157      1.0  0.84757  0.41961  0.87668  1.0000
  I   I158      1.0  0.16488  0.58123  0.80382  1.0000
  I   I159      1.0  0.71881  0.91318  0.67854  1.0000
  I   I160      1.0  0.48412  0.07535  0.49655  1.0000
  I   I161      1.0  0.18976  0.78954  0.56374  1.0000
  I   I162      1.0  0.46753  0.03591  0.46858  1.0000
  I   I163      1.0  0.80766  0.25439  0.79881  1.0000
  I   I164      1.0  0.57093  0.23564  0.12553  1.0000
  I   I165      1.0  0.31303  0.73163  0.23555  1.0000
  I   I166      1.0  0.76580  0.31319  0.86886  1.0000
  I   I167      1.0  0.32451  0.58960  0.93985  1.0000
  I   I168      1.0  0.73932  0.28233  0.36952  1.0000
  I   I169      1.0  0.70206  0.51961  0.19029  1.0000
  I   I170      1.0  0.67004  0.57513  0.20148  1.0000
  I   I171      1.0  0.42829  0.55900  0.92368  1.0000
  I   I172      1.0  0.40079  0.01039  0.68102  1.0000
  I   I173      1.0  0.19632  0.03892  0.08034  1.0000
  I   I174      1.0  0.14335  0.86191  0.11228  1.0000
  I   I175      1.0  0.66401  0.30070  0.12381  1.0000
  I   I176      1.0  0.52238  0.70284  0.06229  1.0000
  I   I177      1.0  0.30117  0.92425  0.50760  1.0000
  I   I178      1.0  0.73145  0.47646  0.54771  1.0000
  I   I179      1.0  0.14803  0.37626  0.53853  1.0000
  I   I180      1.0  0.27639  0.24405  0.47051  1.0000
  I   I181      1.0  0.02518  0.50140  0.70325  1.0000
  I   I182      1.0  0.68966  0.98890  0.06170  1.0000
  I   I183      1.0  0.57603  0.02517  0.10515  1.0000
  I   I184      1.0  0.31736  0.41702  0.92838  1.0000
  I   I185      1.0  0.25504  0.48991  0.11426  1.0000
  I   I186      1.0  0.75676  0.85705  0.30402  1.0000
  I   I187      1.0  0.51725  0.39221  0.35958  1.0000
  I   I188      1.0  0.79802  0.32718  0.38246  1.0000
  I   I189      1.0  0.57942  0.98175  0.19312  1.0000
  I   I190      1.0  0.84020  0.81278  0.10251  1.0000
  I   I191      1.0  0.10901  0.22005  0.23899  1.0000
  I   I192      1.0  0.12406  0.05686  0.26183  1.0000
  I   I193      1.0  0.10621  0.03038  0.14247  1.0000
  I   I194      1.0  0.08331  0.21091  0.34149  1.0000
  I   I195      1.0  0.10280  0.07508  0.37578  1.0000
  I   I196      1.0  0.16558  0.14655  0.11663  1.0000
  I   I197      1.0  0.36312  0.04953  0.20065  1.0000
  I   I198      1.0  0.37379  0.58381  0.25715  1.0000
  I   I199      1.0  0.54752  0.73833  0.07626  1.0000
  I   I200      1.0  0.69992  0.79627  0.92727  1.0000
  I   I201      1.0  0.19045  0.51377  0.72116  1.0000
  I   I202      1.0  0.39951  0.59997  0.47178  1.0000
  I   I203      1.0  0.97357  0.83344  0.82597  1.0000
  I   I204      1.0  0.85352  0.13920  0.21389  1.0000
  I   I205      1.0  0.73588  0.74509  0.50575  1.0000
  I   I206      1.0  0.15646  0.22932  0.98394  1.0000
  I   I207      1.0  0.86169  0.36649  0.80409  1.0000
  I   I208      1.0  0.30252  0.66319  0.39473  1.0000
  I   I209      1.0  0.15010  0.82285  0.66466  1.0000
  I   I210      1.0  0.35887  0.93834  0.54565  1.0000
  I   I211      1.0  0.19707  0.09994  0.41342  1.0000
  I   I212      1.0  0.09774  0.56515  0.84997  1.0000
  I   I213      1.0  0.93482  0.87894  0.75063  1.0000
  I   I214      1.0  0.68948  0.34970  0.73078  1.0000
  I   I215      1.0  0.36830  0.60044  0.86675  1.0000
  I   I216      1.0  0.51795  0.58780  0.52672  1.0000
  I   I217      1.0  0.74160  0.48691  0.29390  1.0000
  I   I218      1.0  0.33298  0.32905  0.05573  1.0000
  I   I219      1.0  0.51293  0.55094  0.08766  1.0000
  I   I220      1.0  0.81549  0.46484  0.75329  1.0000
  I   I221      1.0  0.16175  0.01497  0.14455  1.0000
  I   I222      1.0  0.43655  0.02631  0.72508  1.0000
  I   I223      1.0  0.62624  0.33096  0.01092  1.0000
  I   I224      1.0  0.49585  0.70167  0.18290  1.0000
  I   I225      1.0  0.59240  0.28242  0.75188  1.0000
  I   I226      1.0  0.76340  0.44245  0.61309  1.0000
  I   I227      1.0  0.62054  0.82469  0.16183  1.0000
  I   I228      1.0  0.27021  0.18958  0.46512  1.0000
  I   I229      1.0  0.16820  0.85496  0.60501  1.0000
  I   I230      1.0  0.27014  0.45167  0.49386  1.0000
  I   I231      1.0  0.96316  0.20368  0.62602  1.0000
  I   I232      1.0  0.21993  0.19206  0.01383  1.0000
  I   I233      1.0  0.86857  0.53921  0.32030  1.0000
  I   I234      1.0  0.95653  0.50155  0.07668  1.0000
  I   I235      1.0  0.00123  0.89885  0.42511  1.0000
  I   I236      1.0  0.51628  0.53325  0.48210  1.0000
  I   I237      1.0  0.96869  0.98828  0.35333  1.0000
  I   I238      1.0  0.08119  0.28432  0.36877  1.0000
  I   I239      1.0  0.77423  0.30993  0.75774  1.0000
  I   I240      1.0  0.02540  0.08488  0.64430  1.0000
  I   I241      1.0  0.68658  0.21520  0.84678  1.0000
  I   I242      1.0  0.50033  0.73200  0.57752  1.0000
  I   I243      1.0  0.87622  0.78590  0.99773  1.0000
  I   I244      1.0  0.37563  0.42115  0.97492  1.0000
  I   I245      1.0  0.31833  0.76219  0.81620  1.0000
  I   I246      1.0  0.42691  0.59728  0.24341  1.0000
  I   I247      1.0  0.72257  0.06170  0.09353  1.0000
  I   I248      1.0  0.33558  0.72493  0.13249  1.0000
  I   I249      1.0  0.17961  0.47503  0.72306  1.0000
  I   I250      1.0  0.41066  0.63859  0.51791  1.0000
  I   I251      1.0  0.35687  0.92379  0.83555  1.0000
  I   I252      1.0  0.95991  0.19338  0.28959  1.0000
  I   I253      1.0  0.78749  0.72401  0.64736  1.0000
  I   I254      1.0  0.17045  0.17719  0.98204  1.0000
  I   I255      1.0  0.76032  0.86392  0.61875  1.0000
  I   I256      1.0  0.83492  0.04053  0.37317  1.0000
  I   I257      1.0  0.94903  0.53645  0.78256  1.0000
  I   I258      1.0  0.43907  0.07624  0.53847  1.0000
  I   I259      1.0  0.26374  0.14719  0.40293  1.0000
  I   I260      1.0  0.53028  0.20854  0.12015  1.0000
  I   I261      1.0  0.28879  0.77391  0.17470  1.0000
  I   I262      1.0  0.66736  0.39092  0.79668  1.0000
  I   I263      1.0  0.03944  0.68759  0.13631  1.0000
  I   I264      1.0  0.22841  0.24519  0.52335  1.0000
  I   I265      1.0  0.74940  0.51223  0.20302  1.0000
  I   I266      1.0  0.99199  0.81368  0.73892  1.0000
  I   I267      1.0  0.46451  0.54915  0.05394  1.0000
  I   I268      1.0  0.56227  0.11901  0.86013  1.0000
  I   I269      1.0  0.13702  0.02168  0.05042  1.0000
  I   I270      1.0  0.50915  0.16994  0.84501  1.0000
  I   I271      1.0  0.62029  0.29475  0.09399  1.0000
  I   I272      1.0  0.94490  0.66814  0.04561  1.0000
  I   I273      1.0  0.64281  0.23005  0.72488  1.0000
  I   I274      1.0  0.87377  0.50188  0.18520  1.0000
  I   I275      1.0  0.56530  0.82433  0.18069  1.0000
  I   I276      1.0  0.34548  0.21088  0.53759  1.0000
  I   I277      1.0  0.71387  0.45213  0.64114  1.0000
  I   I278      1.0  0.21425  0.47005  0.44916  1.0000
  I   I279      1.0  0.62634  0.98943  0.27785  1.0000
  I   I280      1.0  0.46034  0.42489  0.86138  1.0000
  I   I281      1.0  0.82546  0.56400  0.22703  1.0000
  I   I282      1.0  0.79462  0.80830  0.37780  1.0000
  I   I283      1.0  0.98501  0.86134  0.51049  1.0000
  I   I284      1.0  0.76272  0.30286  0.40961  1.0000
  I   I285      1.0  0.60121  0.02400  0.19685  1.0000
  I   I286      1.0  0.07126  0.27030  0.29325  1.0000
  I   I287      1.0  0.07772  0.87014  0.83223  1.0000
  I   I288      1.0  0.01363  0.04537  0.68264  1.0000
  I   I289      1.0  0.06110  0.89055  0.44578  1.0000
  I   I290      1.0  0.03800  0.25105  0.28803  1.0000
  I   I291      1.0  0.48464  0.64181  0.61794  1.0000
  I   I292      1.0  0.50488  0.36946  0.93142  1.0000
  I   I293      1.0  0.27104  0.79363  0.75335  1.0000
  I   I294      1.0  0.42770  0.89487  0.07881  1.0000
  I   I295      1.0  0.71779  0.95035  0.12738  1.0000
  I   I296      1.0  0.70798  0.82211  0.82054  1.0000
  I   I297      1.0  0.16849  0.45471  0.63358  1.0000
  I   I298      1.0  0.35539  0.00045  0.19039  1.0000
  I   I299      1.0  0.24709  0.65280  0.38461  1.0000
  I   I300      1.0  0.47053  0.57500  0.57373  1.0000
  I   I301      1.0  0.70917  0.88852  0.57949  1.0000
  I   I302      1.0  0.75931  0.69002  0.55422  1.0000
  I   I303      1.0  0.47854  0.75222  0.39970  1.0000
  I   I304      1.0  0.39930  0.09902  0.46031  1.0000
  I   I305      1.0  0.30012  0.61247  0.42029  1.0000
  I   I306      1.0  0.70298  0.98897  0.19356  1.0000
  I   I307      1.0  0.86280  0.20467  0.81753  1.0000
  I   I308      1.0  0.17570  0.53876  0.89504  1.0000
  I   I309      1.0  0.36250  0.75906  0.28798  1.0000
  I   I310      1.0  0.05091  0.80493  0.48557  1.0000
  I   I311      1.0  0.02035  0.73325  0.19670  1.0000
  I   I312      1.0  0.14181  0.85405  0.00170  1.0000
  I   I313      1.0  0.46875  0.60285  0.05638  1.0000
  I   I314      1.0  0.72350  0.56421  0.27777  1.0000
  I   I315      1.0  0.37002  0.27709  0.00269  1.0000
  I   I316      1.0  0.37880  0.04140  0.76385  1.0000
  I   I317      1.0  0.54887  0.17448  0.79562  1.0000
  I   I318      1.0  0.14291  0.07029  0.08113  1.0000
  I   I319      1.0  0.32850  0.92359  0.58234  1.0000
  I   I320      1.0  0.17542  0.21075  0.08909  1.0000
  I   I321      1.0  0.51708  0.73471  0.17081  1.0000
  I   I322      1.0  0.85965  0.57444  0.19284  1.0000
  I   I323      1.0  0.08550  0.40085  0.49437  1.0000
  I   I324      1.0  0.28716  0.17832  0.54604  1.0000
  I   I325      1.0  0.97714  0.47646  0.77154  1.0000
  I   I326      1.0  0.77086  0.01543  0.05746  1.0000
  I   I327      1.0  0.66245  0.95508  0.22309  1.0000
  I   I328      1.0  0.58352  0.74203  0.25783  1.0000
  I   I329      1.0  0.20204  0.51730  0.05699  1.0000
  I   I330      1.0  0.96896  0.45189  0.14812  1.0000
  I   I331      1.0  0.63110  0.99865  0.10601  1.0000
  I   I332      1.0  0.39894  0.00468  0.28407  1.0000
  I   I333      1.0  0.83105  0.59348  0.29457  1.0000
  I   I334      1.0  0.91918  0.14443  0.68935  1.0000
  I   I335      1.0  0.82589  0.78494  0.99234  1.0000
  I   I336      1.0  0.73491  0.28996  0.80594  1.0000
  I   I337      1.0  0.02742  0.84307  0.42033  1.0000
  I   I338      1.0  0.06116  0.20279  0.25635  1.0000
  I   I339      1.0  0.52883  0.64539  0.59845  1.0000
  I   I340      1.0  0.51467  0.95380  0.95938  1.0000
  I   I341      1.0  0.29115  0.06156  0.93287  1.0000
  I   I342      1.0  0.41016  0.91853  0.18917  1.0000
  I   I343      1.0  0.43999  0.75013  0.16874  1.0000
  I   I344      1.0  0.73220  0.82586  0.93093  1.0000
  I   I345      1.0  0.12926  0.46529  0.70360  1.0000
  I   I346      1.0  0.24561  0.06250  0.37339  1.0000
  I   I347      1.0  0.40958  0.57568  0.56400  1.0000
  I   I348      1.0  0.01583  0.18803  0.26511  1.0000
  I   I349      1.0  0.71629  0.86546  0.70369  1.0000
  I   I350      1.0  0.76416  0.68479  0.68177  1.0000
  I   I351      1.0  0.16816  0.12579  0.01453  1.0000
  I   I352      1.0  0.44139  0.10859  0.42597  1.0000
  I   I353      1.0  0.84936  0.98720  0.33549  1.0000
  I   I354      1.0  0.76075  0.01083  0.16482  1.0000
  I   I355      1.0  0.81016  0.19993  0.83643  1.0000
  I   I356      1.0  0.53863  0.22759  0.21719  1.0000
  I   I357      1.0  0.03638  0.83024  0.74157  1.0000
  I   I358      1.0  0.71745  0.27608  0.47579  1.0000
  I   I359      1.0  0.02810  0.73880  0.08203  1.0000
  I   I360      1.0  0.06905  0.90033  0.93297  1.0000
  I   I361      1.0  0.40745  0.58188  0.03067  1.0000
  I   I362      1.0  0.71021  0.57453  0.17805  1.0000
  I   I363      1.0  0.94799  0.82321  0.70837  1.0000
  I   I364      1.0  0.20472  0.81039  0.13087  1.0000
  I   I365      1.0  0.86122  0.44967  0.83270  1.0000
  I   I366      1.0  0.09549  0.07205  0.09227  1.0000
  I   I367      1.0  0.29667  0.97982  0.53256  1.0000
  I   I368      1.0  0.45840  0.96288  0.92549  1.0000
  I   I369      1.0  0.99368  0.66273  0.12321  1.0000
  I   I370      1.0  0.87792  0.53420  0.12457  1.0000
  I   I371      1.0  0.13362  0.34297  0.45246  1.0000
  I   I372      1.0  0.77999  0.24228  0.44872  1.0000
  I   I373      1.0  0.98433  0.50297  0.66931  1.0000
  I   I374      1.0  0.28428  0.41855  0.41195  1.0000
  I   I375      1.0  0.61784  0.94869  0.28135  1.0000
  I   I376      1.0  0.37319  0.37573  0.91890  1.0000
  I   I377      1.0  0.22915  0.46283  0.05236  1.0000
  I   I378      1.0  0.76861  0.79472  0.27699  1.0000
  I   I379      1.0  0.95847  0.03862  0.27858  1.0000
  I   I380      1.0  0.56105  0.36508  0.43047  1.0000
  I   I381      1.0  0.90090  0.07892  0.22141  1.0000
  I   I382      1.0  0.98749  0.10828  0.73556  1.0000
  I   I383      1.0  0.12015  0.27056  0.27476  1.0000
  I   I384      1.0  0.11806  0.87103  0.80781  1.0000
