data_image0
_chemical_formula_structural       Ti96I384
_chemical_formula_sum              "Ti96 I384"
_cell_length_a       82.2772
_cell_length_b       81.7782
_cell_length_c       39.9535
_cell_angle_alpha    88.7757
_cell_angle_beta     88.7757
_cell_angle_gamma    62.1586

_space_group_name_H-M_alt    "P 1"
_space_group_IT_number       1

loop_
  _space_group_symop_operation_xyz
  'x, y, z'

loop_
  _atom_site_type_symbol
  _atom_site_label
  _atom_site_symmetry_multiplicity
  _atom_site_fract_x
  _atom_site_fract_y
  _atom_site_fract_z
  _atom_site_occupancy
  Ti  Ti1       1.0  0.92339  0.06928  0.61663  1.0000
  Ti  Ti2       1.0  0.70451  0.51665  0.70326  1.0000
  Ti  Ti3       1.0  0.05989  0.95885  0.54864  1.0000
  Ti  Ti4       1.0  0.26232  0.81120  0.76882  1.0000
  Ti  Ti5       1.0  0.83586  0.31299  0.57504  1.0000
  Ti  Ti6       1.0  0.14677  0.19365  0.10411  1.0000
  Ti  Ti7       1.0  0.47428  0.65284  0.41851  1.0000
  Ti  Ti8       1.0  0.27608  0.69982  0.43788  1.0000
  Ti  Ti9       1.0  0.18402  0.92455  0.52291  1.0000
  Ti  Ti10      1.0  0.77111  0.14538  0.96436  1.0000
  Ti  Ti11      1.0  0.37533  0.75348  0.56067  1.0000
  Ti  Ti12      1.0  0.42057  0.16865  0.98921  1.0000
  Ti  Ti13      1.0  0.37200  0.56321  0.19723  1.0000
  Ti  Ti14      1.0  0.31997  0.77635  0.73467  1.0000
  Ti  Ti15      1.0  0.41293  0.60351  0.93725  1.0000
  Ti  Ti16      1.0  0.84184  0.94365  0.68460  1.0000
  Ti  Ti17      1.0  0.69440  0.01238  0.49940  1.0000
  Ti  Ti18      1.0  0.17656  0.47624  0.40822  1.0000
  Ti  Ti19      1.0  0.59517  0.95541  0.33443  1.0000
  Ti  Ti20      1.0  0.71506  0.87959  0.68443  1.0000
  Ti  Ti21      1.0  0.20330  0.32881  0.41530  1.0000
  Ti  Ti22      1.0  0.14727  0.46507  0.87587  1.0000
  Ti  Ti23      1.0  0.27921  0.87802  0.28549  1.0000
  Ti  Ti24      1.0  0.06702  0.18487  0.00304  1.0000
  Ti  Ti25      1.0  0.13869  0.02936  0.85702  1.0000
  Ti  Ti26      1.0  0.39074  0.37047  0.73692  1.0000
  Ti  Ti27      1.0  0.20765  0.79427  0.07922  1.0000
  Ti  Ti28      1.0  0.14031  0.35678  0.09392  1.0000
  Ti  Ti29      1.0  0.63965  0.68784  0.50818  1.0000
  Ti  Ti30      1.0  0.70435  0.60285  0.46768  1.0000
  Ti  Ti31      1.0  0.89152  0.03006  0.93653  1.0000
  Ti  Ti32      1.0  0.79774  0.51216  0.06480  1.0000
  Ti  Ti33      1.0  0.02295  0.85426  0.54030  1.0000
  Ti  Ti34      1.0  0.60778  0.61428  0.82686  1.0000
  Ti  Ti35      1.0  0.89331  0.51758  0.11282  1.0000
  Ti  Ti36      1.0  0.63135  0.55181  0.44381  1.0000
  Ti  Ti37      1.0  0.26385  0.05214  0.40497  1.0000
  Ti  Ti38      1.0  0.85555  0.50083  0.61157  1.0000
  Ti  Ti39      1.0  0.78152  0.15072  0.88970  1.0000
  Ti  Ti40      1.0  0.88711  0.05055  0.45642  1.0000
  Ti  Ti41      1.0  0.45215  0.76282  0.85589  1.0000
  Ti  Ti42      1.0  0.05418  0.67095  0.19733  1.0000
  Ti  Ti43      1.0  0.33985  0.76625  0.47948  1.0000
  Ti  Ti44      1.0  0.30905  0.42162  0.18147  1.0000
  Ti  Ti45      1.0  0.70684  0.36074  0.39610  1.0000
  Ti  Ti46      1.0  0.19171  0.45928  0.12577  1.0000
  Ti  Ti47      1.0  0.07238  0.79912  0.43527  1.0000
  Ti  Ti48      1.0  0.09041  0.32870  0.93788  1.0000
  Ti  Ti49      1.0  0.42638  0.63616  0.10638  1.0000
  Ti  Ti50      1.0  0.19826  0.58193  0.63356  1.0000
  Ti  Ti51      1.0  0.30059  0.89721  0.32235  1.0000
  Ti  Ti52      1.0  0.26884  0.22858  0.40563  1.0000
  Ti  Ti53      1.0  0.60652  0.68897  0.08273  1.0000
  Ti  Ti54      1.0  0.14485  0.73989  0.20808  1.0000
  Ti  Ti55      1.0  0.80824  0.69927  0.57654  1.0000
  Ti  Ti56      1.0  0.70203  0.39616  0.56473  1.0000
  Ti  Ti57      1.0  0.20369  0.91089  0.46182  1.0000
  Ti  Ti58      1.0  0.89614  0.71078  0.96564  1.0000
  Ti  Ti59      1.0  0.80796  0.95896  0.78644  1.0000
  Ti  Ti60      1.0  0.47106  0.90102  0.47329  1.0000
  Ti  Ti61      1.0  0.58952  0.17866  0.80232  1.0000
  Ti  Ti62      1.0  0.42539  0.56842  0.23266  1.0000
  Ti  Ti63      1.0  0.21834  0.32028  0.31756  1.0000
  Ti  Ti64      1.0  0.21190  0.45273  0.37609  1.0000
  Ti  Ti65      1.0  0.51354  0.34252  0.96997  1.0000
  Ti  Ti66      1.0  0.95599  0.05609  0.17842  1.0000
  Ti  Ti67      1.0  0.81193  0.82502  0.64667  1.0000
  Ti  Ti68      1.0  0.35758  0.32636  0.15509  1.0000
  Ti  Ti69      1.0  0.42977  0.36650  0.75696  1.0000
  Ti  Ti70      1.0  0.44891  0.84462  0.92679  1.0000
  Ti  Ti71      1.0  0.68359  0.67353  0.90583  1.0000
  Ti  Ti72      1.0  0.25910  0.77518  0.22952  1.0000
  Ti  Ti73      1.0  0.04205  0.13452  0.15752  1.0000
  Ti  Ti74      1.0  0.10999  0.04134  0.93229  1.0000
  Ti  Ti75      1.0  0.40019  0.64756  0.19394  1.0000
  Ti  Ti76      1.0  0.91102  0.54722  0.44731  1.0000
  Ti  Ti77      1.0  0.37965  0.59721  0.94269  1.0000
  Ti  Ti78      1.0  0.72840  0.15319  0.32260  1.0000
  Ti  Ti79      1.0  0.11979  0.72750  0.76612  1.0000
  Ti  Ti80      1.0  0.84355  0.86015  0.49665  1.0000
  Ti  Ti81      1.0  0.65476  0.39173  0.74701  1.0000
  Ti  Ti82      1.0  0.12035  0.08597  0.58731  1.0000
  Ti  Ti83      1.0  0.74690  0.36007  0.47376  1.0000
  Ti  Ti84      1.0  0.62400  0.56131  0.50773  1.0000
  Ti  Ti85      1.0  0.27288  0.03249  0.47115  1.0000
  Ti  Ti86      1.0  0.42965  0.63601  0.50546  1.0000
  Ti  Ti87      1.0  0.03082  0.80201  0.73933  1.0000
  Ti  Ti88      1.0  0.71884  0.95780  0.04810  1.0000
  Ti  Ti89      1.0  0.56522  0.36948  0.92595  1.0000
  Ti  Ti90      1.0  0.67489  0.05330  0.51536  1.0000
  Ti  Ti91      1.0  0.84172  0.43642  0.45072  1.0000
  Ti  Ti92      1.0  0.85521  0.25236  0.27954  1.0000
  Ti  Ti93      1.0  0.07252  0.26363  0.59377  1.0000
  Ti  Ti94      1.0  0.12222  0.28991  0.94867  1.0000
  Ti  Ti95      1.0  0.58688  0.75689  0.69989  1.0000
  Ti  Ti96      1.0  0.65373  0.98912  0.71301  1.0000
  I   I1        1.0  0.09169  0.80732  0.47703  1.0000
  I   I2        1.0  0.30470  0.86550  0.34466  1.0000
  I   I3        1.0  0.36874  0.67742  0.20924  1.0000
  I   I4        1.0  0.57696  0.71830  0.09519  1.0000
  I   I5        1.0  0.15306  0.16323  0.14077  1.0000
  I   I6        1.0  0.14410  0.71715  0.26173  1.0000
  I   I7        1.0  0.25907  0.70589  0.49921  1.0000
  I   I8        1.0  0.68511  0.38043  0.53535  1.0000
  I   I9        1.0  0.19548  0.89446  0.41506  1.0000
  I   I10       1.0  0.90312  0.01643  0.00423  1.0000
  I   I11       1.0  0.37662  0.77415  0.61527  1.0000
  I   I12       1.0  0.80310  0.31794  0.58635  1.0000
  I   I13       1.0  0.37314  0.58121  0.13929  1.0000
  I   I14       1.0  0.20888  0.29471  0.31552  1.0000
  I   I15       1.0  0.39113  0.61069  0.00065  1.0000
  I   I16       1.0  0.88873  0.03269  0.51197  1.0000
  I   I17       1.0  0.85853  0.27674  0.31717  1.0000
  I   I18       1.0  0.17741  0.50611  0.39150  1.0000
  I   I19       1.0  0.25001  0.30707  0.27831  1.0000
  I   I20       1.0  0.39564  0.76511  0.53082  1.0000
  I   I21       1.0  0.28292  0.69282  0.37604  1.0000
  I   I22       1.0  0.64736  0.42312  0.77628  1.0000
  I   I23       1.0  0.74789  0.95035  0.01324  1.0000
  I   I24       1.0  0.43778  0.86199  0.86932  1.0000
  I   I25       1.0  0.13209  0.03382  0.79374  1.0000
  I   I26       1.0  0.42173  0.64075  0.03368  1.0000
  I   I27       1.0  0.90970  0.53353  0.08572  1.0000
  I   I28       1.0  0.12164  0.39104  0.07677  1.0000
  I   I29       1.0  0.70427  0.14494  0.35432  1.0000
  I   I30       1.0  0.67672  0.62570  0.50914  1.0000
  I   I31       1.0  0.81241  0.88642  0.48137  1.0000
  I   I32       1.0  0.68884  0.37257  0.74984  1.0000
  I   I33       1.0  0.12291  0.69651  0.77838  1.0000
  I   I34       1.0  0.92155  0.48726  0.13456  1.0000
  I   I35       1.0  0.61214  0.59230  0.54822  1.0000
  I   I36       1.0  0.58391  0.60500  0.80564  1.0000
  I   I37       1.0  0.30503  0.03430  0.47160  1.0000
  I   I38       1.0  0.74367  0.17698  0.96708  1.0000
  I   I39       1.0  0.27380  0.00391  0.49705  1.0000
  I   I40       1.0  0.32104  0.38935  0.15540  1.0000
  I   I41       1.0  0.22564  0.56652  0.67272  1.0000
  I   I42       1.0  0.86780  0.08685  0.47104  1.0000
  I   I43       1.0  0.89840  0.71950  0.02252  1.0000
  I   I44       1.0  0.70537  0.32957  0.40367  1.0000
  I   I45       1.0  0.76729  0.37270  0.43730  1.0000
  I   I46       1.0  0.56975  0.74352  0.73850  1.0000
  I   I47       1.0  0.04651  0.79577  0.47062  1.0000
  I   I48       1.0  0.06619  0.35336  0.97228  1.0000
  I   I49       1.0  0.38774  0.65669  0.12831  1.0000
  I   I50       1.0  0.69642  0.52710  0.76648  1.0000
  I   I51       1.0  0.33219  0.89865  0.31903  1.0000
  I   I52       1.0  0.84998  0.85226  0.56117  1.0000
  I   I53       1.0  0.63435  0.67333  0.04229  1.0000
  I   I54       1.0  0.16501  0.75338  0.23162  1.0000
  I   I55       1.0  0.40053  0.63962  0.47078  1.0000
  I   I56       1.0  0.18141  0.34932  0.36346  1.0000
  I   I57       1.0  0.61826  0.72590  0.70944  1.0000
  I   I58       1.0  0.78891  0.13843  0.82290  1.0000
  I   I59       1.0  0.79395  0.93709  0.79107  1.0000
  I   I60       1.0  0.48744  0.90259  0.52535  1.0000
  I   I61       1.0  0.44132  0.53582  0.26683  1.0000
  I   I62       1.0  0.37727  0.53226  0.17639  1.0000
  I   I63       1.0  0.68191  0.89665  0.71423  1.0000
  I   I64       1.0  0.87417  0.92788  0.67770  1.0000
  I   I65       1.0  0.92068  0.04355  0.43767  1.0000
  I   I66       1.0  0.14472  0.33172  0.05085  1.0000
  I   I67       1.0  0.60149  0.96926  0.38763  1.0000
  I   I68       1.0  0.71712  0.87076  0.62398  1.0000
  I   I69       1.0  0.35723  0.37609  0.71835  1.0000
  I   I70       1.0  0.43495  0.86288  0.98209  1.0000
  I   I71       1.0  0.31152  0.87998  0.25844  1.0000
  I   I72       1.0  0.28820  0.75106  0.19787  1.0000
  I   I73       1.0  0.19523  0.77372  0.04880  1.0000
  I   I74       1.0  0.44940  0.36573  0.81351  1.0000
  I   I75       1.0  0.45041  0.33057  0.74664  1.0000
  I   I76       1.0  0.34608  0.61040  0.92387  1.0000
  I   I77       1.0  0.41431  0.56905  0.96709  1.0000
  I   I78       1.0  0.86874  0.05882  0.96008  1.0000
  I   I79       1.0  0.00750  0.83671  0.57494  1.0000
  I   I80       1.0  0.92767  0.06432  0.55145  1.0000
  I   I81       1.0  0.80034  0.48047  0.03315  1.0000
  I   I82       1.0  0.13135  0.05678  0.55006  1.0000
  I   I83       1.0  0.71344  0.36408  0.33634  1.0000
  I   I84       1.0  0.59560  0.57204  0.46105  1.0000
  I   I85       1.0  0.27523  0.04321  0.53761  1.0000
  I   I86       1.0  0.12256  0.34959  0.13907  1.0000
  I   I87       1.0  0.78400  0.17822  0.85252  1.0000
  I   I88       1.0  0.75696  0.12494  0.94671  1.0000
  I   I89       1.0  0.60253  0.64147  0.78429  1.0000
  I   I90       1.0  0.21035  0.59107  0.57868  1.0000
  I   I91       1.0  0.85781  0.41290  0.39964  1.0000
  I   I92       1.0  0.84703  0.26552  0.21959  1.0000
  I   I93       1.0  0.33253  0.41874  0.22159  1.0000
  I   I94       1.0  0.08440  0.29671  0.95117  1.0000
  I   I95       1.0  0.22582  0.45652  0.11562  1.0000
  I   I96       1.0  0.11501  0.47258  0.85958  1.0000
  I   I97       1.0  0.07807  0.96247  0.49523  1.0000
  I   I98       1.0  0.95107  0.03963  0.64391  1.0000
  I   I99       1.0  0.73764  0.50135  0.71826  1.0000
  I   I100      1.0  0.32053  0.77789  0.80423  1.0000
  I   I101      1.0  0.73402  0.93093  0.09039  1.0000
  I   I102      1.0  0.85050  0.31540  0.63266  1.0000
  I   I103      1.0  0.46092  0.63455  0.47392  1.0000
  I   I104      1.0  0.81584  0.68379  0.51447  1.0000
  I   I105      1.0  0.43110  0.75561  0.81468  1.0000
  I   I106      1.0  0.45361  0.16783  0.97789  1.0000
  I   I107      1.0  0.74977  0.15779  0.86797  1.0000
  I   I108      1.0  0.41799  0.13915  0.00723  1.0000
  I   I109      1.0  0.40319  0.63518  0.91562  1.0000
  I   I110      1.0  0.43955  0.57638  0.28478  1.0000
  I   I111      1.0  0.72170  0.90863  0.66429  1.0000
  I   I112      1.0  0.21386  0.46280  0.43800  1.0000
  I   I113      1.0  0.50847  0.34323  0.03174  1.0000
  I   I114      1.0  0.69224  0.05012  0.45109  1.0000
  I   I115      1.0  0.83482  0.79069  0.63945  1.0000
  I   I116      1.0  0.81558  0.84959  0.60836  1.0000
  I   I117      1.0  0.37701  0.33445  0.19812  1.0000
  I   I118      1.0  0.63559  0.02400  0.70264  1.0000
  I   I119      1.0  0.78106  0.82443  0.63066  1.0000
  I   I120      1.0  0.09039  0.78231  0.37740  1.0000
  I   I121      1.0  0.04795  0.16069  0.14318  1.0000
  I   I122      1.0  0.14770  0.05732  0.85616  1.0000
  I   I123      1.0  0.43606  0.62199  0.16823  1.0000
  I   I124      1.0  0.69273  0.61106  0.40859  1.0000
  I   I125      1.0  0.92893  0.55248  0.48913  1.0000
  I   I126      1.0  0.74409  0.16358  0.36593  1.0000
  I   I127      1.0  0.01766  0.85354  0.47750  1.0000
  I   I128      1.0  0.32851  0.79616  0.69531  1.0000
  I   I129      1.0  0.25082  0.89514  0.24392  1.0000
  I   I130      1.0  0.65017  0.52898  0.39749  1.0000
  I   I131      1.0  0.09231  0.10520  0.54932  1.0000
  I   I132      1.0  0.87163  0.54725  0.14725  1.0000
  I   I133      1.0  0.80558  0.12306  0.92514  1.0000
  I   I134      1.0  0.87530  0.50705  0.56375  1.0000
  I   I135      1.0  0.97126  0.07782  0.16545  1.0000
  I   I136      1.0  0.02094  0.68869  0.21159  1.0000
  I   I137      1.0  0.28274  0.24636  0.43899  1.0000
  I   I138      1.0  0.56462  0.37510  0.99936  1.0000
  I   I139      1.0  0.87518  0.42821  0.47352  1.0000
  I   I140      1.0  0.92839  0.07382  0.21616  1.0000
  I   I141      1.0  0.05279  0.26816  0.53690  1.0000
  I   I142      1.0  0.08041  0.33517  0.87484  1.0000
  I   I143      1.0  0.03787  0.99219  0.55752  1.0000
  I   I144      1.0  0.16647  0.42477  0.88298  1.0000
  I   I145      1.0  0.93479  0.09228  0.64323  1.0000
  I   I146      1.0  0.67795  0.55033  0.68083  1.0000
  I   I147      1.0  0.03372  0.94749  0.53925  1.0000
  I   I148      1.0  0.24624  0.22080  0.42875  1.0000
  I   I149      1.0  0.84271  0.33646  0.54645  1.0000
  I   I150      1.0  0.14606  0.20939  0.15840  1.0000
  I   I151      1.0  0.77527  0.70069  0.59373  1.0000
  I   I152      1.0  0.27109  0.67127  0.45220  1.0000
  I   I153      1.0  0.20582  0.88650  0.51128  1.0000
  I   I154      1.0  0.34464  0.78338  0.53258  1.0000
  I   I155      1.0  0.40720  0.72867  0.57640  1.0000
  I   I156      1.0  0.48717  0.88587  0.41011  1.0000
  I   I157      1.0  0.39428  0.60007  0.87839  1.0000
  I   I158      1.0  0.23288  0.30117  0.37578  1.0000
  I   I159      1.0  0.62246  0.17668  0.81896  1.0000
  I   I160      1.0  0.22444  0.43346  0.31736  1.0000
  I   I161      1.0  0.66231  0.05448  0.58078  1.0000
  I   I162      1.0  0.22451  0.47760  0.35054  1.0000
  I   I163      1.0  0.60819  0.95957  0.27327  1.0000
  I   I164      1.0  0.20267  0.42888  0.16192  1.0000
  I   I165      1.0  0.19479  0.36020  0.44137  1.0000
  I   I166      1.0  0.65002  0.97756  0.65713  1.0000
  I   I167      1.0  0.64998  0.37014  0.80098  1.0000
  I   I168      1.0  0.10258  0.16784  0.99596  1.0000
  I   I169      1.0  0.09279  0.06121  0.88023  1.0000
  I   I170      1.0  0.10958  0.06722  0.96846  1.0000
  I   I171      1.0  0.24321  0.77252  0.10415  1.0000
  I   I172      1.0  0.87313  0.56284  0.44594  1.0000
  I   I173      1.0  0.67142  0.68509  0.48446  1.0000
  I   I174      1.0  0.73898  0.59956  0.46385  1.0000
  I   I175      1.0  0.87036  0.04777  0.39888  1.0000
  I   I176      1.0  0.76644  0.51707  0.09949  1.0000
  I   I177      1.0  0.11273  0.76072  0.78956  1.0000
  I   I178      1.0  0.11374  0.07371  0.64133  1.0000
  I   I179      1.0  0.67216  0.38133  0.41812  1.0000
  I   I180      1.0  0.24094  0.05790  0.35351  1.0000
  I   I181      1.0  0.41317  0.18384  0.04429  1.0000
  I   I182      1.0  0.49313  0.66574  0.44930  1.0000
  I   I183      1.0  0.04842  0.81596  0.70230  1.0000
  I   I184      1.0  0.71481  0.98752  0.07861  1.0000
  I   I185      1.0  0.55244  0.38013  0.86395  1.0000
  I   I186      1.0  0.05878  0.64074  0.16897  1.0000
  I   I187      1.0  0.88584  0.22030  0.27769  1.0000
  I   I188      1.0  0.30877  0.44874  0.14662  1.0000
  I   I189      1.0  0.03290  0.77114  0.76501  1.0000
  I   I190      1.0  0.17338  0.44357  0.08862  1.0000
  I   I191      1.0  0.73067  0.00038  0.48931  1.0000
  I   I192      1.0  0.04245  0.95143  0.61458  1.0000
  I   I193      1.0  0.74660  0.13725  0.26496  1.0000
  I   I194      1.0  0.74027  0.84861  0.70109  1.0000
  I   I195      1.0  0.08261  0.94244  0.59349  1.0000
  I   I196      1.0  0.29258  0.81954  0.75455  1.0000
  I   I197      1.0  0.91237  0.67359  0.97002  1.0000
  I   I198      1.0  0.16035  0.20838  0.05828  1.0000
  I   I199      1.0  0.83301  0.49967  0.06992  1.0000
  I   I200      1.0  0.71743  0.41553  0.59722  1.0000
  I   I201      1.0  0.19247  0.94767  0.45500  1.0000
  I   I202      1.0  0.83425  0.92854  0.63363  1.0000
  I   I203      1.0  0.37849  0.40433  0.76982  1.0000
  I   I204      1.0  0.39352  0.19169  0.95395  1.0000
  I   I205      1.0  0.34245  0.56881  0.23158  1.0000
  I   I206      1.0  0.25008  0.78940  0.79206  1.0000
  I   I207      1.0  0.44158  0.59837  0.97363  1.0000
  I   I208      1.0  0.84252  0.93751  0.75608  1.0000
  I   I209      1.0  0.65742  0.03393  0.50844  1.0000
  I   I210      1.0  0.10267  0.73490  0.71326  1.0000
  I   I211      1.0  0.48416  0.83055  0.93587  1.0000
  I   I212      1.0  0.19327  0.34525  0.27351  1.0000
  I   I213      1.0  0.40895  0.33603  0.72220  1.0000
  I   I214      1.0  0.14680  0.48752  0.92158  1.0000
  I   I215      1.0  0.30373  0.90741  0.38557  1.0000
  I   I216      1.0  0.08356  0.29080  0.56713  1.0000
  I   I217      1.0  0.09205  0.03000  0.97545  1.0000
  I   I218      1.0  0.42321  0.65752  0.22849  1.0000
  I   I219      1.0  0.04056  0.12502  0.22116  1.0000
  I   I220      1.0  0.36506  0.57709  0.97746  1.0000
  I   I221      1.0  0.64192  0.66427  0.55838  1.0000
  I   I222      1.0  0.91589  0.55965  0.39007  1.0000
  I   I223      1.0  0.86770  0.01995  0.91006  1.0000
  I   I224      1.0  0.78427  0.54484  0.03244  1.0000
  I   I225      1.0  0.99573  0.88839  0.55012  1.0000
  I   I226      1.0  0.31491  0.67966  0.43780  1.0000
  I   I227      1.0  0.88428  0.50231  0.06338  1.0000
  I   I228      1.0  0.62300  0.58901  0.43271  1.0000
  I   I229      1.0  0.92911  0.70654  0.92727  1.0000
  I   I230      1.0  0.81628  0.52384  0.60786  1.0000
  I   I231      1.0  0.77887  0.17534  0.93995  1.0000
  I   I232      1.0  0.35156  0.74808  0.70968  1.0000
  I   I233      1.0  0.43337  0.77302  0.91467  1.0000
  I   I234      1.0  0.68538  0.01302  0.43230  1.0000
  I   I235      1.0  0.34155  0.78322  0.42851  1.0000
  I   I236      1.0  0.06670  0.23541  0.60566  1.0000
  I   I237      1.0  0.70729  0.58042  0.52043  1.0000
  I   I238      1.0  0.57405  0.74935  0.64750  1.0000
  I   I239      1.0  0.66183  0.96520  0.76449  1.0000
  I   I240      1.0  0.12240  0.27602  0.89053  1.0000
  I   I241      1.0  0.89366  0.06681  0.61156  1.0000
  I   I242      1.0  0.69293  0.49222  0.71133  1.0000
  I   I243      1.0  0.33396  0.32768  0.11792  1.0000
  I   I244      1.0  0.68720  0.96952  0.01799  1.0000
  I   I245      1.0  0.61450  0.71509  0.06593  1.0000
  I   I246      1.0  0.11573  0.19504  0.08219  1.0000
  I   I247      1.0  0.44291  0.67985  0.43406  1.0000
  I   I248      1.0  0.18851  0.30969  0.39290  1.0000
  I   I249      1.0  0.23738  0.89874  0.43631  1.0000
  I   I250      1.0  0.77855  0.99409  0.80442  1.0000
  I   I251      1.0  0.36554  0.72958  0.48072  1.0000
  I   I252      1.0  0.56293  0.95651  0.32880  1.0000
  I   I253      1.0  0.44238  0.57002  0.17232  1.0000
  I   I254      1.0  0.24869  0.81339  0.70889  1.0000
  I   I255      1.0  0.57554  0.17296  0.74883  1.0000
  I   I256      1.0  0.48186  0.35669  0.93796  1.0000
  I   I257      1.0  0.28441  0.01508  0.40884  1.0000
  I   I258      1.0  0.15124  0.47633  0.44714  1.0000
  I   I259      1.0  0.79873  0.83879  0.70730  1.0000
  I   I260      1.0  0.17349  0.48869  0.15836  1.0000
  I   I261      1.0  0.21267  0.31170  0.47621  1.0000
  I   I262      1.0  0.16894  0.46518  0.83163  1.0000
  I   I263      1.0  0.66252  0.68444  0.95822  1.0000
  I   I264      1.0  0.63612  0.52067  0.48801  1.0000
  I   I265      1.0  0.17314  0.01077  0.84004  1.0000
  I   I266      1.0  0.44566  0.37554  0.71317  1.0000
  I   I267      1.0  0.05800  0.11028  0.11147  1.0000
  I   I268      1.0  0.97581  0.02985  0.23045  1.0000
  I   I269      1.0  0.71427  0.18432  0.28816  1.0000
  I   I270      1.0  0.17379  0.35434  0.10221  1.0000
  I   I271      1.0  0.90713  0.04206  0.89005  1.0000
  I   I272      1.0  0.64386  0.38849  0.68774  1.0000
  I   I273      1.0  0.04586  0.85864  0.57694  1.0000
  I   I274      1.0  0.44325  0.79794  0.83163  1.0000
  I   I275      1.0  0.22853  0.79073  0.02782  1.0000
  I   I276      1.0  0.62760  0.54585  0.56829  1.0000
  I   I277      1.0  0.14032  0.10013  0.56293  1.0000
  I   I278      1.0  0.88290  0.46953  0.60826  1.0000
  I   I279      1.0  0.27151  0.43733  0.17338  1.0000
  I   I280      1.0  0.25740  0.24612  0.34599  1.0000
  I   I281      1.0  0.47865  0.74608  0.81125  1.0000
  I   I282      1.0  0.07611  0.66828  0.25139  1.0000
  I   I283      1.0  0.35044  0.74261  0.56435  1.0000
  I   I284      1.0  0.03841  0.17828  0.98997  1.0000
  I   I285      1.0  0.00193  0.82326  0.77141  1.0000
  I   I286      1.0  0.57373  0.79218  0.71118  1.0000
  I   I287      1.0  0.24657  0.75004  0.24213  1.0000
  I   I288      1.0  0.13099  0.31764  0.93930  1.0000
  I   I289      1.0  0.30190  0.78909  0.50863  1.0000
  I   I290      1.0  0.69986  0.97528  0.50187  1.0000
  I   I291      1.0  0.28230  0.93399  0.31334  1.0000
  I   I292      1.0  0.29136  0.19202  0.39612  1.0000
  I   I293      1.0  0.59833  0.65768  0.07642  1.0000
  I   I294      1.0  0.15542  0.72459  0.14976  1.0000
  I   I295      1.0  0.42291  0.66535  0.54092  1.0000
  I   I296      1.0  0.67373  0.42622  0.56652  1.0000
  I   I297      1.0  0.15402  0.92783  0.48386  1.0000
  I   I298      1.0  0.86482  0.73231  0.92904  1.0000
  I   I299      1.0  0.82715  0.97691  0.66791  1.0000
  I   I300      1.0  0.06673  0.27182  0.66291  1.0000
  I   I301      1.0  0.57429  0.21428  0.79696  1.0000
  I   I302      1.0  0.40886  0.55096  0.19811  1.0000
  I   I303      1.0  0.53379  0.30746  0.94861  1.0000
  I   I304      1.0  0.19869  0.43360  0.41101  1.0000
  I   I305      1.0  0.80221  0.95866  0.71216  1.0000
  I   I306      1.0  0.50514  0.61895  0.41386  1.0000
  I   I307      1.0  0.28005  0.06375  0.36044  1.0000
  I   I308      1.0  0.17378  0.56793  0.62670  1.0000
  I   I309      1.0  0.24797  0.73716  0.42252  1.0000
  I   I310      1.0  0.44371  0.65313  0.12375  1.0000
  I   I311      1.0  0.66290  0.66514  0.86797  1.0000
  I   I312      1.0  0.06154  0.83327  0.39811  1.0000
  I   I313      1.0  0.00673  0.14372  0.14544  1.0000
  I   I314      1.0  0.14403  0.01563  0.94056  1.0000
  I   I315      1.0  0.39403  0.61985  0.20782  1.0000
  I   I316      1.0  0.91628  0.51383  0.43285  1.0000
  I   I317      1.0  0.94665  0.03574  0.13696  1.0000
  I   I318      1.0  0.61783  0.71890  0.53638  1.0000
  I   I319      1.0  0.09193  0.73263  0.81769  1.0000
  I   I320      1.0  0.29487  0.76814  0.70807  1.0000
  I   I321      1.0  0.79708  0.73497  0.56525  1.0000
  I   I322      1.0  0.61577  0.61503  0.89278  1.0000
  I   I323      1.0  0.71920  0.38436  0.42515  1.0000
  I   I324      1.0  0.65627  0.55135  0.48426  1.0000
  I   I325      1.0  0.24978  0.08462  0.43925  1.0000
  I   I326      1.0  0.47740  0.66800  0.35901  1.0000
  I   I327      1.0  0.77235  0.32873  0.46869  1.0000
  I   I328      1.0  0.77762  0.14031  0.03154  1.0000
  I   I329      1.0  0.59948  0.35196  0.94727  1.0000
  I   I330      1.0  0.64212  0.08203  0.51440  1.0000
  I   I331      1.0  0.02356  0.79366  0.67446  1.0000
  I   I332      1.0  0.70482  0.02428  0.55841  1.0000
  I   I333      1.0  0.63653  0.58150  0.81212  1.0000
  I   I334      1.0  0.15375  0.25639  0.96636  1.0000
  I   I335      1.0  0.38296  0.30659  0.11649  1.0000
  I   I336      1.0  0.68445  0.99504  0.73251  1.0000
  I   I337      1.0  0.43656  0.60221  0.08645  1.0000
  I   I338      1.0  0.17581  0.61485  0.65582  1.0000
  I   I339      1.0  0.28002  0.84893  0.26224  1.0000
  I   I340      1.0  0.83914  0.83143  0.48062  1.0000
  I   I341      1.0  0.07048  0.18425  0.06270  1.0000
  I   I342      1.0  0.11252  0.76975  0.19205  1.0000
  I   I343      1.0  0.83670  0.67901  0.61430  1.0000
  I   I344      1.0  0.70156  0.38434  0.62081  1.0000
  I   I345      1.0  0.22020  0.92451  0.52267  1.0000
  I   I346      1.0  0.44142  0.82227  0.96342  1.0000
  I   I347      1.0  0.82652  0.94739  0.83687  1.0000
  I   I348      1.0  0.46686  0.87215  0.48217  1.0000
  I   I349      1.0  0.58162  0.17854  0.86244  1.0000
  I   I350      1.0  0.38519  0.58240  0.24995  1.0000
  I   I351      1.0  0.25990  0.83067  0.82368  1.0000
  I   I352      1.0  0.17302  0.46928  0.34578  1.0000
  I   I353      1.0  0.54182  0.35295  0.94812  1.0000
  I   I354      1.0  0.43508  0.61074  0.54799  1.0000
  I   I355      1.0  0.61302  0.92016  0.33150  1.0000
  I   I356      1.0  0.34917  0.30847  0.20386  1.0000
  I   I357      1.0  0.40325  0.36278  0.80323  1.0000
  I   I358      1.0  0.85729  0.27983  0.54267  1.0000
  I   I359      1.0  0.71370  0.64686  0.93245  1.0000
  I   I360      1.0  0.28202  0.77561  0.27513  1.0000
  I   I361      1.0  0.19873  0.83077  0.08465  1.0000
  I   I362      1.0  0.11389  0.01686  0.87847  1.0000
  I   I363      1.0  0.39793  0.38680  0.68334  1.0000
  I   I364      1.0  0.81207  0.43411  0.44384  1.0000
  I   I365      1.0  0.61879  0.67052  0.13809  1.0000
  I   I366      1.0  0.62390  0.67640  0.46075  1.0000
  I   I367      1.0  0.14750  0.73331  0.72876  1.0000
  I   I368      1.0  0.87094  0.85637  0.45565  1.0000
  I   I369      1.0  0.25846  0.89477  0.33481  1.0000
  I   I370      1.0  0.16756  0.93879  0.57383  1.0000
  I   I371      1.0  0.74245  0.36502  0.53849  1.0000
  I   I372      1.0  0.05009  0.22188  0.99273  1.0000
  I   I373      1.0  0.23582  0.04415  0.45387  1.0000
  I   I374      1.0  0.85703  0.50236  0.67461  1.0000
  I   I375      1.0  0.71703  0.35524  0.46665  1.0000
  I   I376      1.0  0.69682  0.68533  0.85459  1.0000
  I   I377      1.0  0.57638  0.39536  0.92094  1.0000
  I   I378      1.0  0.05637  0.69572  0.15088  1.0000
  I   I379      1.0  0.83057  0.47157  0.43672  1.0000
  I   I380      1.0  0.83497  0.23608  0.29577  1.0000
  I   I381      1.0  0.43897  0.91936  0.43991  1.0000
  I   I382      1.0  0.11112  0.31774  0.00900  1.0000
  I   I383      1.0  0.32720  0.74479  0.44687  1.0000
  I   I384      1.0  0.23437  0.81103  0.22178  1.0000
