data_image0
_chemical_formula_structural       Ti96I384
_chemical_formula_sum              "Ti96 I384"
_cell_length_a       53.9728
_cell_length_b       54.0673
_cell_length_c       26.1267
_cell_angle_alpha    88.7757
_cell_angle_beta     88.7757
_cell_angle_gamma    62.1586

_space_group_name_H-M_alt    "P 1"
_space_group_IT_number       1

loop_
  _space_group_symop_operation_xyz
  'x, y, z'

loop_
  _atom_site_type_symbol
  _atom_site_label
  _atom_site_symmetry_multiplicity
  _atom_site_fract_x
  _atom_site_fract_y
  _atom_site_fract_z
  _atom_site_occupancy
  Ti  Ti1       1.0  0.61956  0.68271  0.31946  1.0000
  Ti  Ti2       1.0  0.88816  0.11825  0.30354  1.0000
  Ti  Ti3       1.0  0.52080  0.82431  0.31991  1.0000
  Ti  Ti4       1.0  0.19844  0.02444  0.65121  1.0000
  Ti  Ti5       1.0  0.09711  0.20495  0.36471  1.0000
  Ti  Ti6       1.0  0.08313  0.24564  0.85564  1.0000
  Ti  Ti7       1.0  0.03396  0.89853  0.25270  1.0000
  Ti  Ti8       1.0  0.01122  0.06473  0.69309  1.0000
  Ti  Ti9       1.0  0.92119  0.86810  0.62719  1.0000
  Ti  Ti10      1.0  0.33045  0.89691  0.96459  1.0000
  Ti  Ti11      1.0  0.04205  0.60360  0.82887  1.0000
  Ti  Ti12      1.0  0.94780  0.64046  0.08670  1.0000
  Ti  Ti13      1.0  0.43966  0.20124  0.43194  1.0000
  Ti  Ti14      1.0  0.26577  0.17492  0.44046  1.0000
  Ti  Ti15      1.0  0.36157  0.04337  0.06112  1.0000
  Ti  Ti16      1.0  0.13789  0.80173  0.92807  1.0000
  Ti  Ti17      1.0  0.22473  0.65641  0.07235  1.0000
  Ti  Ti18      1.0  0.17243  0.48824  0.28302  1.0000
  Ti  Ti19      1.0  0.57045  0.64890  0.59397  1.0000
  Ti  Ti20      1.0  0.76638  0.83296  0.91143  1.0000
  Ti  Ti21      1.0  0.21333  0.63400  0.73829  1.0000
  Ti  Ti22      1.0  0.48124  0.92331  0.60081  1.0000
  Ti  Ti23      1.0  0.79589  0.85744  0.30441  1.0000
  Ti  Ti24      1.0  0.45039  0.03060  0.67613  1.0000
  Ti  Ti25      1.0  0.29769  0.21677  0.89774  1.0000
  Ti  Ti26      1.0  0.31781  0.34170  0.94380  1.0000
  Ti  Ti27      1.0  0.36351  0.59490  0.85311  1.0000
  Ti  Ti28      1.0  0.46602  0.66581  0.97461  1.0000
  Ti  Ti29      1.0  0.64853  0.42554  0.88251  1.0000
  Ti  Ti30      1.0  0.75237  0.47080  0.76557  1.0000
  Ti  Ti31      1.0  0.87395  0.41499  0.35613  1.0000
  Ti  Ti32      1.0  0.86097  0.26729  0.58897  1.0000
  Ti  Ti33      1.0  0.93838  0.49536  0.88420  1.0000
  Ti  Ti34      1.0  0.97613  0.81331  0.03426  1.0000
  Ti  Ti35      1.0  0.72121  0.68770  0.04292  1.0000
  Ti  Ti36      1.0  0.83307  0.67020  0.63676  1.0000
  Ti  Ti37      1.0  0.60085  0.24222  0.20585  1.0000
  Ti  Ti38      1.0  0.49156  0.31299  0.42490  1.0000
  Ti  Ti39      1.0  0.56406  0.36357  0.92186  1.0000
  Ti  Ti40      1.0  0.11379  0.94553  0.93850  1.0000
  Ti  Ti41      1.0  0.71879  0.15416  0.58147  1.0000
  Ti  Ti42      1.0  0.16164  0.90240  0.51628  1.0000
  Ti  Ti43      1.0  0.81721  0.20721  0.05155  1.0000
  Ti  Ti44      1.0  0.95166  0.42751  0.52063  1.0000
  Ti  Ti45      1.0  0.03017  0.51978  0.54171  1.0000
  Ti  Ti46      1.0  0.66452  0.04226  0.52352  1.0000
  Ti  Ti47      1.0  0.58668  0.00813  0.07153  1.0000
  Ti  Ti48      1.0  0.57042  0.18855  0.82310  1.0000
  Ti  Ti49      1.0  0.59705  0.75528  0.38856  1.0000
  Ti  Ti50      1.0  0.82332  0.10401  0.34209  1.0000
  Ti  Ti51      1.0  0.97901  0.07111  0.22472  1.0000
  Ti  Ti52      1.0  0.26225  0.97856  0.56188  1.0000
  Ti  Ti53      1.0  0.07819  0.28173  0.39510  1.0000
  Ti  Ti54      1.0  0.07368  0.18860  0.77650  1.0000
  Ti  Ti55      1.0  0.96704  0.96207  0.32711  1.0000
  Ti  Ti56      1.0  0.98777  0.12360  0.58368  1.0000
  Ti  Ti57      1.0  0.97126  0.88123  0.72541  1.0000
  Ti  Ti58      1.0  0.32863  0.87940  0.14124  1.0000
  Ti  Ti59      1.0  0.28530  0.90008  0.84994  1.0000
  Ti  Ti60      1.0  0.96947  0.64362  0.95248  1.0000
  Ti  Ti61      1.0  0.27618  0.06180  0.14425  1.0000
  Ti  Ti62      1.0  0.43107  0.18448  0.31234  1.0000
  Ti  Ti63      1.0  0.27778  0.10127  0.39351  1.0000
  Ti  Ti64      1.0  0.13874  0.44481  0.34750  1.0000
  Ti  Ti65      1.0  0.17443  0.72439  0.99417  1.0000
  Ti  Ti66      1.0  0.09039  0.76719  0.46614  1.0000
  Ti  Ti67      1.0  0.60915  0.64590  0.69548  1.0000
  Ti  Ti68      1.0  0.75646  0.84643  0.75331  1.0000
  Ti  Ti69      1.0  0.17963  0.60928  0.80792  1.0000
  Ti  Ti70      1.0  0.48343  0.98831  0.51258  1.0000
  Ti  Ti71      1.0  0.84675  0.79734  0.20524  1.0000
  Ti  Ti72      1.0  0.77188  0.83692  0.46647  1.0000
  Ti  Ti73      1.0  0.39478  0.58351  0.72713  1.0000
  Ti  Ti74      1.0  0.29327  0.28376  0.86135  1.0000
  Ti  Ti75      1.0  0.30459  0.42976  0.90083  1.0000
  Ti  Ti76      1.0  0.77280  0.52286  0.72886  1.0000
  Ti  Ti77      1.0  0.53296  0.62644  0.98347  1.0000
  Ti  Ti78      1.0  0.68126  0.47634  0.85991  1.0000
  Ti  Ti79      1.0  0.94720  0.42184  0.80403  1.0000
  Ti  Ti80      1.0  0.87119  0.34352  0.32516  1.0000
  Ti  Ti81      1.0  0.84581  0.34619  0.57040  1.0000
  Ti  Ti82      1.0  0.95249  0.90672  0.02181  1.0000
  Ti  Ti83      1.0  0.63519  0.69881  0.01424  1.0000
  Ti  Ti84      1.0  0.83700  0.69331  0.52935  1.0000
  Ti  Ti85      1.0  0.66314  0.17511  0.14446  1.0000
  Ti  Ti86      1.0  0.54051  0.25367  0.33512  1.0000
  Ti  Ti87      1.0  0.54045  0.38595  0.08533  1.0000
  Ti  Ti88      1.0  0.13888  0.93201  0.07091  1.0000
  Ti  Ti89      1.0  0.69643  0.21657  0.52626  1.0000
  Ti  Ti90      1.0  0.22794  0.86385  0.39695  1.0000
  Ti  Ti91      1.0  0.09647  0.49168  0.61221  1.0000
  Ti  Ti92      1.0  0.87193  0.22505  0.11220  1.0000
  Ti  Ti93      1.0  0.95504  0.50823  0.46278  1.0000
  Ti  Ti94      1.0  0.59577  0.15377  0.73204  1.0000
  Ti  Ti95      1.0  0.73318  0.01620  0.49307  1.0000
  Ti  Ti96      1.0  0.58666  0.95575  0.02074  1.0000
  I   I1        1.0  0.82794  0.05483  0.33903  1.0000
  I   I2        1.0  0.90633  0.14292  0.37195  1.0000
  I   I3        1.0  0.61224  0.76105  0.47762  1.0000
  I   I4        1.0  0.09668  0.29974  0.31603  1.0000
  I   I5        1.0  0.11582  0.13754  0.77423  1.0000
  I   I6        1.0  0.05509  0.22607  0.91309  1.0000
  I   I7        1.0  0.02238  0.08145  0.51816  1.0000
  I   I8        1.0  0.99260  0.02465  0.70559  1.0000
  I   I9        1.0  0.86671  0.88878  0.63214  1.0000
  I   I10       1.0  0.33649  0.85264  0.90949  1.0000
  I   I11       1.0  0.02072  0.63656  0.91524  1.0000
  I   I12       1.0  0.34638  0.83259  0.19049  1.0000
  I   I13       1.0  0.42406  0.16118  0.41697  1.0000
  I   I14       1.0  0.30957  0.08123  0.30931  1.0000
  I   I15       1.0  0.31632  0.02559  0.05564  1.0000
  I   I16       1.0  0.12024  0.75284  0.99148  1.0000
  I   I17       1.0  0.13687  0.76521  0.50380  1.0000
  I   I18       1.0  0.11575  0.48705  0.27271  1.0000
  I   I19       1.0  0.78167  0.80132  0.82179  1.0000
  I   I20       1.0  0.15311  0.66300  0.81541  1.0000
  I   I21       1.0  0.24014  0.59234  0.82736  1.0000
  I   I22       1.0  0.88553  0.81015  0.20273  1.0000
  I   I23       1.0  0.84418  0.80262  0.31183  1.0000
  I   I24       1.0  0.49623  0.00962  0.60271  1.0000
  I   I25       1.0  0.24521  0.28433  0.86441  1.0000
  I   I26       1.0  0.31787  0.37816  0.84592  1.0000
  I   I27       1.0  0.38466  0.63076  0.77557  1.0000
  I   I28       1.0  0.54810  0.60354  0.89005  1.0000
  I   I29       1.0  0.65370  0.46326  0.94129  1.0000
  I   I30       1.0  0.73878  0.52343  0.81422  1.0000
  I   I31       1.0  0.92468  0.39047  0.39619  1.0000
  I   I32       1.0  0.79375  0.38052  0.54107  1.0000
  I   I33       1.0  0.99984  0.41344  0.78360  1.0000
  I   I34       1.0  0.74072  0.67576  0.14161  1.0000
  I   I35       1.0  0.77970  0.68501  0.62785  1.0000
  I   I36       1.0  0.98787  0.92608  0.03310  1.0000
  I   I37       1.0  0.59620  0.21951  0.34339  1.0000
  I   I38       1.0  0.54920  0.42944  0.09705  1.0000
  I   I39       1.0  0.68361  0.13003  0.20462  1.0000
  I   I40       1.0  0.69481  0.26339  0.55606  1.0000
  I   I41       1.0  0.26106  0.83312  0.47556  1.0000
  I   I42       1.0  0.18923  0.89365  0.08493  1.0000
  I   I43       1.0  0.85203  0.18618  0.13632  1.0000
  I   I44       1.0  0.91943  0.48588  0.50980  1.0000
  I   I45       1.0  0.99237  0.57109  0.52349  1.0000
  I   I46       1.0  0.67927  0.99752  0.46514  1.0000
  I   I47       1.0  0.61174  0.94762  0.12093  1.0000
  I   I48       1.0  0.60711  0.20030  0.76224  1.0000
  I   I49       1.0  0.59827  0.65009  0.29765  1.0000
  I   I50       1.0  0.83623  0.15752  0.32302  1.0000
  I   I51       1.0  0.02419  0.03029  0.27679  1.0000
  I   I52       1.0  0.26933  0.01870  0.61599  1.0000
  I   I53       1.0  0.06943  0.24154  0.44060  1.0000
  I   I54       1.0  0.03881  0.17225  0.80889  1.0000
  I   I55       1.0  0.00498  0.96881  0.38196  1.0000
  I   I56       1.0  0.94694  0.13503  0.51491  1.0000
  I   I57       1.0  0.96924  0.88023  0.61169  1.0000
  I   I58       1.0  0.30433  0.94143  0.89936  1.0000
  I   I59       1.0  0.28805  0.91409  0.75318  1.0000
  I   I60       1.0  0.92141  0.64178  0.99740  1.0000
  I   I61       1.0  0.45935  0.23340  0.38951  1.0000
  I   I62       1.0  0.48237  0.14313  0.31587  1.0000
  I   I63       1.0  0.26226  0.22054  0.39947  1.0000
  I   I64       1.0  0.17035  0.82036  0.87746  1.0000
  I   I65       1.0  0.23374  0.69742  0.02256  1.0000
  I   I66       1.0  0.09831  0.74637  0.37507  1.0000
  I   I67       1.0  0.55127  0.68770  0.67609  1.0000
  I   I68       1.0  0.75350  0.79707  0.95693  1.0000
  I   I69       1.0  0.17218  0.66378  0.66615  1.0000
  I   I70       1.0  0.46178  0.95294  0.50207  1.0000
  I   I71       1.0  0.78972  0.81849  0.22855  1.0000
  I   I72       1.0  0.80456  0.78415  0.45548  1.0000
  I   I73       1.0  0.35209  0.63269  0.91803  1.0000
  I   I74       1.0  0.33754  0.29916  0.87861  1.0000
  I   I75       1.0  0.35209  0.42091  0.93805  1.0000
  I   I76       1.0  0.47862  0.69532  0.90007  1.0000
  I   I77       1.0  0.56476  0.65025  0.96250  1.0000
  I   I78       1.0  0.69438  0.49412  0.76502  1.0000
  I   I79       1.0  0.93727  0.38139  0.82868  1.0000
  I   I80       1.0  0.84172  0.31955  0.33820  1.0000
  I   I81       1.0  0.86196  0.30397  0.50177  1.0000
  I   I82       1.0  0.02743  0.78001  0.01074  1.0000
  I   I83       1.0  0.74026  0.72239  0.02926  1.0000
  I   I84       1.0  0.83051  0.64890  0.52969  1.0000
  I   I85       1.0  0.60795  0.18630  0.17896  1.0000
  I   I86       1.0  0.48731  0.28750  0.30012  1.0000
  I   I87       1.0  0.51103  0.39296  0.17014  1.0000
  I   I88       1.0  0.08482  0.92421  0.89882  1.0000
  I   I89       1.0  0.69361  0.13122  0.63907  1.0000
  I   I90       1.0  0.18228  0.86125  0.58411  1.0000
  I   I91       1.0  0.09973  0.47828  0.70772  1.0000
  I   I92       1.0  0.77850  0.19792  0.09534  1.0000
  I   I93       1.0  0.00668  0.51858  0.44538  1.0000
  I   I94       1.0  0.59312  0.11103  0.68034  1.0000
  I   I95       1.0  0.77498  0.02174  0.52380  1.0000
  I   I96       1.0  0.55301  0.98906  0.94513  1.0000
  I   I97       1.0  0.48665  0.87370  0.36156  1.0000
  I   I98       1.0  0.66344  0.67189  0.25245  1.0000
  I   I99       1.0  0.91953  0.12864  0.22910  1.0000
  I   I100      1.0  0.31150  0.93855  0.57987  1.0000
  I   I101      1.0  0.16263  0.07234  0.59427  1.0000
  I   I102      1.0  0.13912  0.15211  0.39133  1.0000
  I   I103      1.0  0.92948  0.01220  0.29048  1.0000
  I   I104      1.0  0.06884  0.84404  0.28985  1.0000
  I   I105      1.0  0.01965  0.83761  0.73503  1.0000
  I   I106      1.0  0.90759  0.68510  0.12208  1.0000
  I   I107      1.0  0.27102  0.90624  0.95489  1.0000
  I   I108      1.0  0.99513  0.59408  0.85730  1.0000
  I   I109      1.0  0.31059  0.02528  0.20995  1.0000
  I   I110      1.0  0.42196  0.22193  0.52284  1.0000
  I   I111      1.0  0.28713  0.17453  0.52817  1.0000
  I   I112      1.0  0.18527  0.43178  0.28886  1.0000
  I   I113      1.0  0.17663  0.74771  0.89102  1.0000
  I   I114      1.0  0.25359  0.64383  0.16129  1.0000
  I   I115      1.0  0.65157  0.62421  0.62815  1.0000
  I   I116      1.0  0.63219  0.62498  0.78653  1.0000
  I   I117      1.0  0.81309  0.83690  0.91931  1.0000
  I   I118      1.0  0.43265  0.01378  0.58669  1.0000
  I   I119      1.0  0.49532  0.87425  0.57134  1.0000
  I   I120      1.0  0.76132  0.83287  0.35810  1.0000
  I   I121      1.0  0.35385  0.56182  0.91422  1.0000
  I   I122      1.0  0.30744  0.25566  0.96635  1.0000
  I   I123      1.0  0.36232  0.34660  0.96495  1.0000
  I   I124      1.0  0.74773  0.49373  0.67192  1.0000
  I   I125      1.0  0.45030  0.64027  0.90142  1.0000
  I   I126      1.0  0.70321  0.41763  0.83944  1.0000
  I   I127      1.0  0.92578  0.44899  0.90248  1.0000
  I   I128      1.0  0.84373  0.38477  0.41057  1.0000
  I   I129      1.0  0.85990  0.24544  0.67980  1.0000
  I   I130      1.0  0.88488  0.66116  0.60038  1.0000
  I   I131      1.0  0.98388  0.85608  0.97284  1.0000
  I   I132      1.0  0.58250  0.73548  0.03885  1.0000
  I   I133      1.0  0.58598  0.34179  0.11341  1.0000
  I   I134      1.0  0.54284  0.26188  0.23251  1.0000
  I   I135      1.0  0.47257  0.36368  0.39160  1.0000
  I   I136      1.0  0.11022  0.91016  0.49913  1.0000
  I   I137      1.0  0.14911  0.97051  0.02665  1.0000
  I   I138      1.0  0.75288  0.17934  0.55448  1.0000
  I   I139      1.0  0.06971  0.53258  0.49882  1.0000
  I   I140      1.0  0.89179  0.21972  0.20660  1.0000
  I   I141      1.0  0.98938  0.44756  0.45679  1.0000
  I   I142      1.0  0.59717  0.16874  0.91019  1.0000
  I   I143      1.0  0.74043  0.97494  0.57118  1.0000
  I   I144      1.0  0.56866  0.05281  0.01618  1.0000
  I   I145      1.0  0.52964  0.79773  0.41274  1.0000
  I   I146      1.0  0.87828  0.08177  0.38628  1.0000
  I   I147      1.0  0.53423  0.85393  0.25585  1.0000
  I   I148      1.0  0.26863  0.99100  0.46956  1.0000
  I   I149      1.0  0.02193  0.31031  0.38775  1.0000
  I   I150      1.0  0.05583  0.24825  0.76784  1.0000
  I   I151      1.0  0.98143  0.94457  0.22681  1.0000
  I   I152      1.0  0.02150  0.07086  0.79048  1.0000
  I   I153      1.0  0.92015  0.92009  0.68535  1.0000
  I   I154      1.0  0.37931  0.89729  0.93058  1.0000
  I   I155      1.0  0.09191  0.58094  0.86550  1.0000
  I   I156      1.0  0.94229  0.68162  0.88666  1.0000
  I   I157      1.0  0.24062  0.04378  0.13302  1.0000
  I   I158      1.0  0.25864  0.15829  0.33653  1.0000
  I   I159      1.0  0.38750  0.06574  0.00794  1.0000
  I   I160      1.0  0.21278  0.48540  0.22899  1.0000
  I   I161      1.0  0.18415  0.67315  0.96789  1.0000
  I   I162      1.0  0.20289  0.48027  0.36488  1.0000
  I   I163      1.0  0.58507  0.68002  0.54665  1.0000
  I   I164      1.0  0.71313  0.87974  0.69552  1.0000
  I   I165      1.0  0.25175  0.60105  0.66071  1.0000
  I   I166      1.0  0.52135  0.93830  0.57505  1.0000
  I   I167      1.0  0.82002  0.88176  0.25229  1.0000
  I   I168      1.0  0.43704  0.08360  0.67408  1.0000
  I   I169      1.0  0.25939  0.21444  0.95907  1.0000
  I   I170      1.0  0.26850  0.33263  0.93088  1.0000
  I   I171      1.0  0.41933  0.57486  0.84253  1.0000
  I   I172      1.0  0.81187  0.49874  0.66247  1.0000
  I   I173      1.0  0.67678  0.38145  0.93756  1.0000
  I   I174      1.0  0.73787  0.46282  0.88247  1.0000
  I   I175      1.0  0.88771  0.44053  0.28548  1.0000
  I   I176      1.0  0.82140  0.35173  0.66167  1.0000
  I   I177      1.0  0.98571  0.46978  0.94127  1.0000
  I   I178      1.0  0.94970  0.86202  0.10056  1.0000
  I   I179      1.0  0.68288  0.69774  0.95699  1.0000
  I   I180      1.0  0.83036  0.70383  0.71634  1.0000
  I   I181      1.0  0.65321  0.21707  0.23717  1.0000
  I   I182      1.0  0.54687  0.29748  0.37311  1.0000
  I   I183      1.0  0.55306  0.32162  0.91313  1.0000
  I   I184      1.0  0.09913  0.98852  0.88203  1.0000
  I   I185      1.0  0.76341  0.11948  0.63786  1.0000
  I   I186      1.0  0.25051  0.88545  0.33848  1.0000
  I   I187      1.0  0.86630  0.20578  0.01215  1.0000
  I   I188      1.0  0.98350  0.42564  0.59491  1.0000
  I   I189      1.0  0.98197  0.50581  0.56117  1.0000
  I   I190      1.0  0.61714  0.08683  0.49905  1.0000
  I   I191      1.0  0.58222  0.03569  0.15635  1.0000
  I   I192      1.0  0.56333  0.14345  0.80979  1.0000
  I   I193      1.0  0.65709  0.64759  0.38516  1.0000
  I   I194      1.0  0.85597  0.09677  0.24633  1.0000
  I   I195      1.0  0.56026  0.76910  0.29334  1.0000
  I   I196      1.0  0.19868  0.06110  0.71150  1.0000
  I   I197      1.0  0.13286  0.22759  0.38687  1.0000
  I   I198      1.0  0.05899  0.30134  0.87711  1.0000
  I   I199      1.0  0.07295  0.91471  0.24100  1.0000
  I   I200      1.0  0.97941  0.17547  0.56936  1.0000
  I   I201      1.0  0.94090  0.82162  0.67969  1.0000
  I   I202      1.0  0.31167  0.92815  0.05246  1.0000
  I   I203      1.0  0.04973  0.56704  0.75918  1.0000
  I   I204      1.0  0.98567  0.63576  0.14723  1.0000
  I   I205      1.0  0.48772  0.16484  0.46547  1.0000
  I   I206      1.0  0.31736  0.13099  0.41756  1.0000
  I   I207      1.0  0.39000  0.02661  0.14943  1.0000
  I   I208      1.0  0.11017  0.79184  0.85503  1.0000
  I   I209      1.0  0.26266  0.61087  0.02490  1.0000
  I   I210      1.0  0.13089  0.53624  0.31026  1.0000
  I   I211      1.0  0.58793  0.60210  0.54943  1.0000
  I   I212      1.0  0.72006  0.86936  0.84868  1.0000
  I   I213      1.0  0.19504  0.59414  0.70848  1.0000
  I   I214      1.0  0.43950  0.93634  0.66552  1.0000
  I   I215      1.0  0.75004  0.90538  0.31929  1.0000
  I   I216      1.0  0.40576  0.03189  0.71167  1.0000
  I   I217      1.0  0.28641  0.20126  0.81187  1.0000
  I   I218      1.0  0.32761  0.32105  0.03406  1.0000
  I   I219      1.0  0.44047  0.57299  0.68408  1.0000
  I   I220      1.0  0.41973  0.70334  0.01729  1.0000
  I   I221      1.0  0.59409  0.44521  0.88692  1.0000
  I   I222      1.0  0.76019  0.41993  0.75724  1.0000
  I   I223      1.0  0.84248  0.39955  0.28257  1.0000
  I   I224      1.0  0.87722  0.22413  0.52206  1.0000
  I   I225      1.0  0.96055  0.52789  0.84292  1.0000
  I   I226      1.0  0.95375  0.80883  0.94845  1.0000
  I   I227      1.0  0.75958  0.64087  0.00730  1.0000
  I   I228      1.0  0.83487  0.73495  0.58850  1.0000
  I   I229      1.0  0.61055  0.24985  0.11041  1.0000
  I   I230      1.0  0.49951  0.31803  0.51989  1.0000
  I   I231      1.0  0.51581  0.38863  0.99897  1.0000
  I   I232      1.0  0.16343  0.91896  0.91284  1.0000
  I   I233      1.0  0.64692  0.21928  0.48140  1.0000
  I   I234      1.0  0.22031  0.83198  0.33240  1.0000
  I   I235      1.0  0.82430  0.16835  0.98566  1.0000
  I   I236      1.0  0.90533  0.42858  0.54730  1.0000
  I   I237      1.0  0.07425  0.46289  0.54259  1.0000
  I   I238      1.0  0.63713  0.02672  0.58924  1.0000
  I   I239      1.0  0.63998  0.98913  0.04251  1.0000
  I   I240      1.0  0.52802  0.23343  0.85151  1.0000
  I   I241      1.0  0.57524  0.71614  0.38936  1.0000
  I   I242      1.0  0.94800  0.07410  0.31297  1.0000
  I   I243      1.0  0.48819  0.80773  0.28157  1.0000
  I   I244      1.0  0.23867  0.96815  0.65191  1.0000
  I   I245      1.0  0.08687  0.23375  0.27061  1.0000
  I   I246      1.0  0.12686  0.24353  0.89735  1.0000
  I   I247      1.0  0.02064  0.88121  0.16833  1.0000
  I   I248      1.0  0.96124  0.11368  0.66808  1.0000
  I   I249      1.0  0.93519  0.83987  0.53794  1.0000
  I   I250      1.0  0.35461  0.85544  0.04588  1.0000
  I   I251      1.0  0.04024  0.63947  0.76143  1.0000
  I   I252      1.0  0.93273  0.60418  0.11597  1.0000
  I   I253      1.0  0.38933  0.23353  0.36177  1.0000
  I   I254      1.0  0.30547  0.05788  0.45861  1.0000
  I   I255      1.0  0.39437  0.99469  0.02101  1.0000
  I   I256      1.0  0.09793  0.84587  0.96273  1.0000
  I   I257      1.0  0.20403  0.61901  0.08256  1.0000
  I   I258      1.0  0.12707  0.47795  0.42508  1.0000
  I   I259      1.0  0.58036  0.61802  0.70206  1.0000
  I   I260      1.0  0.78212  0.87436  0.75325  1.0000
  I   I261      1.0  0.22615  0.67417  0.75754  1.0000
  I   I262      1.0  0.51515  0.89767  0.67571  1.0000
  I   I263      1.0  0.79533  0.86518  0.40975  1.0000
  I   I264      1.0  0.49026  0.00638  0.74407  1.0000
  I   I265      1.0  0.33866  0.17172  0.93749  1.0000
  I   I266      1.0  0.28293  0.40018  0.96609  1.0000
  I   I267      1.0  0.32271  0.61926  0.78336  1.0000
  I   I268      1.0  0.49013  0.61461  0.02045  1.0000
  I   I269      1.0  0.65627  0.39094  0.79689  1.0000
  I   I270      1.0  0.80522  0.45061  0.77751  1.0000
  I   I271      1.0  0.83475  0.45833  0.40613  1.0000
  I   I272      1.0  0.80721  0.30082  0.58510  1.0000
  I   I273      1.0  0.91089  0.52694  0.96054  1.0000
  I   I274      1.0  0.96581  0.78911  0.11385  1.0000
  I   I275      1.0  0.66339  0.71479  0.09060  1.0000
  I   I276      1.0  0.84049  0.63339  0.70901  1.0000
  I   I277      1.0  0.59662  0.28489  0.25543  1.0000
  I   I278      1.0  0.44153  0.31780  0.43024  1.0000
  I   I279      1.0  0.60475  0.35603  0.85513  1.0000
  I   I280      1.0  0.08333  0.97484  0.02804  1.0000
  I   I281      1.0  0.68312  0.20382  0.63257  1.0000
  I   I282      1.0  0.15721  0.94158  0.57886  1.0000
  I   I283      1.0  0.83238  0.27807  0.09848  1.0000
  I   I284      1.0  0.98848  0.38039  0.48267  1.0000
  I   I285      1.0  0.03745  0.52858  0.64104  1.0000
  I   I286      1.0  0.70270  0.05453  0.57224  1.0000
  I   I287      1.0  0.53522  0.00993  0.08545  1.0000
  I   I288      1.0  0.54119  0.19819  0.71935  1.0000
  I   I289      1.0  0.64571  0.72344  0.34767  1.0000
  I   I290      1.0  0.79621  0.11365  0.43466  1.0000
  I   I291      1.0  0.99673  0.10089  0.17252  1.0000
  I   I292      1.0  0.15137  0.01981  0.68410  1.0000
  I   I293      1.0  0.09736  0.29943  0.46886  1.0000
  I   I294      1.0  0.06357  0.18876  0.68357  1.0000
  I   I295      1.0  0.99914  0.90259  0.34111  1.0000
  I   I296      1.0  0.03078  0.10444  0.66507  1.0000
  I   I297      1.0  0.97512  0.92208  0.77073  1.0000
  I   I298      1.0  0.33255  0.91011  0.21332  1.0000
  I   I299      1.0  0.23034  0.93628  0.83241  1.0000
  I   I300      1.0  0.97691  0.67432  0.01776  1.0000
  I   I301      1.0  0.30668  0.08921  0.09883  1.0000
  I   I302      1.0  0.44146  0.21193  0.23600  1.0000
  I   I303      1.0  0.24898  0.13792  0.48270  1.0000
  I   I304      1.0  0.16798  0.40076  0.41028  1.0000
  I   I305      1.0  0.16765  0.70564  0.09346  1.0000
  I   I306      1.0  0.04948  0.81603  0.44708  1.0000
  I   I307      1.0  0.51927  0.66499  0.56859  1.0000
  I   I308      1.0  0.75056  0.86888  0.99389  1.0000
  I   I309      1.0  0.14387  0.59341  0.78318  1.0000
  I   I310      1.0  0.52298  0.97436  0.45119  1.0000
  I   I311      1.0  0.85374  0.74549  0.22428  1.0000
  I   I312      1.0  0.72317  0.84083  0.49169  1.0000
  I   I313      1.0  0.36785  0.59418  0.64569  1.0000
  I   I314      1.0  0.28709  0.30656  0.77204  1.0000
  I   I315      1.0  0.27727  0.47230  0.96077  1.0000
  I   I316      1.0  0.80652  0.52863  0.78931  1.0000
  I   I317      1.0  0.56619  0.58938  0.04633  1.0000
  I   I318      1.0  0.64985  0.52784  0.88789  1.0000
  I   I319      1.0  0.93088  0.42377  0.71084  1.0000
  I   I320      1.0  0.91258  0.30891  0.38147  1.0000
  I   I321      1.0  0.88791  0.29583  0.62278  1.0000
  I   I322      1.0  0.93341  0.93968  0.93154  1.0000
  I   I323      1.0  0.65171  0.65268  0.06637  1.0000
  I   I324      1.0  0.87429  0.67487  0.45752  1.0000
  I   I325      1.0  0.65043  0.17217  0.04993  1.0000
  I   I326      1.0  0.52809  0.25196  0.43418  1.0000
  I   I327      1.0  0.52733  0.40892  0.86854  1.0000
  I   I328      1.0  0.12914  0.94400  0.16901  1.0000
  I   I329      1.0  0.70294  0.14722  0.48605  1.0000
  I   I330      1.0  0.18253  0.85480  0.43589  1.0000
  I   I331      1.0  0.11809  0.52590  0.61246  1.0000
  I   I332      1.0  0.78619  0.25717  0.01275  1.0000
  I   I333      1.0  0.91266  0.55914  0.47624  1.0000
  I   I334      1.0  0.64148  0.11679  0.77614  1.0000
  I   I335      1.0  0.68731  0.06433  0.44069  1.0000
  I   I336      1.0  0.58273  0.90967  0.01616  1.0000
  I   I337      1.0  0.60532  0.79742  0.34902  1.0000
  I   I338      1.0  0.77444  0.13165  0.30483  1.0000
  I   I339      1.0  0.96538  0.04048  0.16487  1.0000
  I   I340      1.0  0.20237  0.00153  0.54356  1.0000
  I   I341      1.0  0.05482  0.19814  0.34042  1.0000
  I   I342      1.0  0.11946  0.19930  0.80834  1.0000
  I   I343      1.0  0.93003  0.96518  0.39843  1.0000
  I   I344      1.0  0.06125  0.01909  0.68510  1.0000
  I   I345      1.0  0.94063  0.86753  0.79647  1.0000
  I   I346      1.0  0.27624  0.89707  0.12369  1.0000
  I   I347      1.0  0.26139  0.86666  0.84617  1.0000
  I   I348      1.0  0.99529  0.59406  0.01086  1.0000
  I   I349      1.0  0.24953  0.10533  0.20012  1.0000
  I   I350      1.0  0.40110  0.17094  0.26587  1.0000
  I   I351      1.0  0.23340  0.09946  0.37031  1.0000
  I   I352      1.0  0.12339  0.42048  0.27894  1.0000
  I   I353      1.0  0.17883  0.77415  0.01898  1.0000
  I   I354      1.0  0.06292  0.75084  0.52983  1.0000
  I   I355      1.0  0.61167  0.69512  0.71052  1.0000
  I   I356      1.0  0.78676  0.81208  0.68275  1.0000
  I   I357      1.0  0.17296  0.59506  0.90790  1.0000
  I   I358      1.0  0.44927  0.03399  0.46456  1.0000
  I   I359      1.0  0.84974  0.78620  0.10671  1.0000
  I   I360      1.0  0.78734  0.84094  0.55729  1.0000
  I   I361      1.0  0.39152  0.53668  0.73657  1.0000
  I   I362      1.0  0.33083  0.23228  0.83484  1.0000
  I   I363      1.0  0.29404  0.45796  0.81393  1.0000
  I   I364      1.0  0.74955  0.56992  0.68573  1.0000
  I   I365      1.0  0.50061  0.67278  0.03895  1.0000
  I   I366      1.0  0.64020  0.47145  0.79986  1.0000
  I   I367      1.0  0.92896  0.47915  0.78856  1.0000
  I   I368      1.0  0.90283  0.33169  0.24249  1.0000
  I   I369      1.0  0.87719  0.36809  0.57699  1.0000
  I   I370      1.0  0.90622  0.93640  0.06854  1.0000
  I   I371      1.0  0.62011  0.68984  0.92420  1.0000
  I   I372      1.0  0.79251  0.72017  0.47362  1.0000
  I   I373      1.0  0.70503  0.18208  0.11972  1.0000
  I   I374      1.0  0.53556  0.20873  0.33575  1.0000
  I   I375      1.0  0.58217  0.38585  0.99285  1.0000
  I   I376      1.0  0.11727  0.90066  0.02413  1.0000
  I   I377      1.0  0.71110  0.22282  0.43341  1.0000
  I   I378      1.0  0.20342  0.91390  0.45187  1.0000
  I   I379      1.0  0.14353  0.44993  0.59463  1.0000
  I   I380      1.0  0.91582  0.22693  0.06865  1.0000
  I   I381      1.0  0.94870  0.49926  0.37113  1.0000
  I   I382      1.0  0.60861  0.16437  0.63111  1.0000
  I   I383      1.0  0.75412  0.98740  0.41601  1.0000
  I   I384      1.0  0.62947  0.93863  0.96293  1.0000
