data_image0
_chemical_formula_structural       Ti96I384
_chemical_formula_sum              "Ti96 I384"
_cell_length_a       59.0329
_cell_length_b       59.5663
_cell_length_c       28.7655
_cell_angle_alpha    88.7757
_cell_angle_beta     88.7757
_cell_angle_gamma    62.1586

_space_group_name_H-M_alt    "P 1"
_space_group_IT_number       1

loop_
  _space_group_symop_operation_xyz
  'x, y, z'

loop_
  _atom_site_type_symbol
  _atom_site_label
  _atom_site_symmetry_multiplicity
  _atom_site_fract_x
  _atom_site_fract_y
  _atom_site_fract_z
  _atom_site_occupancy
  Ti  Ti1       1.0  0.90071  0.84758  0.70999  1.0000
  Ti  Ti2       1.0  0.79331  0.04054  0.75944  1.0000
  Ti  Ti3       1.0  0.75010  0.83861  0.66196  1.0000
  Ti  Ti4       1.0  0.42897  0.47224  0.34769  1.0000
  Ti  Ti5       1.0  0.05394  0.74062  0.28100  1.0000
  Ti  Ti6       1.0  0.28950  0.03665  0.14232  1.0000
  Ti  Ti7       1.0  0.04854  0.90310  0.92472  1.0000
  Ti  Ti8       1.0  0.21391  0.65783  0.34358  1.0000
  Ti  Ti9       1.0  0.77062  0.28542  0.24547  1.0000
  Ti  Ti10      1.0  0.64419  0.14504  0.29498  1.0000
  Ti  Ti11      1.0  0.09877  0.68290  0.80879  1.0000
  Ti  Ti12      1.0  0.58610  0.72628  0.12255  1.0000
  Ti  Ti13      1.0  0.40163  0.20989  0.61092  1.0000
  Ti  Ti14      1.0  0.09162  0.25604  0.96676  1.0000
  Ti  Ti15      1.0  0.19214  0.89208  0.94865  1.0000
  Ti  Ti16      1.0  0.93227  0.09189  0.60429  1.0000
  Ti  Ti17      1.0  0.09743  0.47590  0.10765  1.0000
  Ti  Ti18      1.0  0.01728  0.41778  0.30084  1.0000
  Ti  Ti19      1.0  0.70188  0.79542  0.36862  1.0000
  Ti  Ti20      1.0  0.60631  0.98058  0.16452  1.0000
  Ti  Ti21      1.0  0.26400  0.52309  0.62111  1.0000
  Ti  Ti22      1.0  0.45005  0.98106  0.39048  1.0000
  Ti  Ti23      1.0  0.47579  0.85058  0.83966  1.0000
  Ti  Ti24      1.0  0.45591  0.04446  0.55428  1.0000
  Ti  Ti25      1.0  0.19267  0.24922  0.42787  1.0000
  Ti  Ti26      1.0  0.30576  0.32486  0.85932  1.0000
  Ti  Ti27      1.0  0.47183  0.52509  0.67755  1.0000
  Ti  Ti28      1.0  0.60991  0.58874  0.67870  1.0000
  Ti  Ti29      1.0  0.98521  0.29887  0.46430  1.0000
  Ti  Ti30      1.0  0.78282  0.48855  0.81497  1.0000
  Ti  Ti31      1.0  0.82197  0.37927  0.24696  1.0000
  Ti  Ti32      1.0  0.87101  0.01074  0.03851  1.0000
  Ti  Ti33      1.0  0.30315  0.91114  0.62257  1.0000
  Ti  Ti34      1.0  0.94839  0.73552  0.46322  1.0000
  Ti  Ti35      1.0  0.60315  0.48589  0.92685  1.0000
  Ti  Ti36      1.0  0.01371  0.44876  0.66660  1.0000
  Ti  Ti37      1.0  0.10636  0.22124  0.70517  1.0000
  Ti  Ti38      1.0  0.65236  0.23299  0.49883  1.0000
  Ti  Ti39      1.0  0.35449  0.26076  0.15618  1.0000
  Ti  Ti40      1.0  0.13972  0.59770  0.10702  1.0000
  Ti  Ti41      1.0  0.60697  0.57569  0.21801  1.0000
  Ti  Ti42      1.0  0.25772  0.83043  0.43309  1.0000
  Ti  Ti43      1.0  0.14376  0.94820  0.57623  1.0000
  Ti  Ti44      1.0  0.76004  0.68227  0.06116  1.0000
  Ti  Ti45      1.0  0.74231  0.38163  0.57598  1.0000
  Ti  Ti46      1.0  0.85261  0.06847  0.35542  1.0000
  Ti  Ti47      1.0  0.59230  0.26586  0.08445  1.0000
  Ti  Ti48      1.0  0.44304  0.52596  0.05059  1.0000
  Ti  Ti49      1.0  0.93847  0.83089  0.82466  1.0000
  Ti  Ti50      1.0  0.55576  0.14329  0.92265  1.0000
  Ti  Ti51      1.0  0.78571  0.99964  0.65881  1.0000
  Ti  Ti52      1.0  0.42445  0.41074  0.33703  1.0000
  Ti  Ti53      1.0  0.01356  0.79555  0.21655  1.0000
  Ti  Ti54      1.0  0.24239  0.10309  0.13218  1.0000
  Ti  Ti55      1.0  0.07859  0.86063  0.82658  1.0000
  Ti  Ti56      1.0  0.28708  0.63208  0.33380  1.0000
  Ti  Ti57      1.0  0.72625  0.26769  0.20874  1.0000
  Ti  Ti58      1.0  0.08944  0.94872  0.64342  1.0000
  Ti  Ti59      1.0  0.66938  0.12152  0.42746  1.0000
  Ti  Ti60      1.0  0.56525  0.67283  0.10008  1.0000
  Ti  Ti61      1.0  0.23703  0.81287  0.92122  1.0000
  Ti  Ti62      1.0  0.37274  0.18310  0.68178  1.0000
  Ti  Ti63      1.0  0.04782  0.31884  0.03703  1.0000
  Ti  Ti64      1.0  0.99804  0.46921  0.18402  1.0000
  Ti  Ti65      1.0  0.93126  0.16184  0.58909  1.0000
  Ti  Ti66      1.0  0.46989  0.35529  0.75764  1.0000
  Ti  Ti67      1.0  0.73577  0.73922  0.35931  1.0000
  Ti  Ti68      1.0  0.52012  0.99685  0.12099  1.0000
  Ti  Ti69      1.0  0.30836  0.49296  0.72131  1.0000
  Ti  Ti70      1.0  0.49271  0.96032  0.52542  1.0000
  Ti  Ti71      1.0  0.40084  0.86384  0.85252  1.0000
  Ti  Ti72      1.0  0.07697  0.80672  0.47835  1.0000
  Ti  Ti73      1.0  0.50807  0.52248  0.75097  1.0000
  Ti  Ti74      1.0  0.23929  0.26277  0.52028  1.0000
  Ti  Ti75      1.0  0.24228  0.33124  0.81278  1.0000
  Ti  Ti76      1.0  0.72818  0.52946  0.88232  1.0000
  Ti  Ti77      1.0  0.55869  0.63491  0.66768  1.0000
  Ti  Ti78      1.0  0.99986  0.23747  0.37081  1.0000
  Ti  Ti79      1.0  0.35063  0.90810  0.56508  1.0000
  Ti  Ti80      1.0  0.75939  0.42952  0.28517  1.0000
  Ti  Ti81      1.0  0.91135  0.98211  0.11769  1.0000
  Ti  Ti82      1.0  0.91076  0.71502  0.53723  1.0000
  Ti  Ti83      1.0  0.64097  0.44714  0.81488  1.0000
  Ti  Ti84      1.0  0.96614  0.49005  0.65208  1.0000
  Ti  Ti85      1.0  0.05489  0.26711  0.71335  1.0000
  Ti  Ti86      1.0  0.59432  0.28699  0.56015  1.0000
  Ti  Ti87      1.0  0.27856  0.28293  0.08457  1.0000
  Ti  Ti88      1.0  0.10608  0.53989  0.16950  1.0000
  Ti  Ti89      1.0  0.62923  0.59386  0.34631  1.0000
  Ti  Ti90      1.0  0.30844  0.76218  0.35347  1.0000
  Ti  Ti91      1.0  0.70665  0.35977  0.64038  1.0000
  Ti  Ti92      1.0  0.00825  0.07393  0.91218  1.0000
  Ti  Ti93      1.0  0.77013  0.70290  0.90996  1.0000
  Ti  Ti94      1.0  0.47969  0.47871  0.13903  1.0000
  Ti  Ti95      1.0  0.86019  0.02453  0.48970  1.0000
  Ti  Ti96      1.0  0.59166  0.23770  0.99920  1.0000
  I   I1        1.0  0.57600  0.16119  0.85274  1.0000
  I   I2        1.0  0.75595  0.00826  0.58827  1.0000
  I   I3        1.0  0.85550  0.88109  0.68860  1.0000
  I   I4        1.0  0.01325  0.79781  0.12420  1.0000
  I   I5        1.0  0.33844  0.99654  0.15642  1.0000
  I   I6        1.0  0.27663  0.11805  0.12962  1.0000
  I   I7        1.0  0.31271  0.64025  0.25771  1.0000
  I   I8        1.0  0.25136  0.63228  0.39790  1.0000
  I   I9        1.0  0.78962  0.25393  0.31957  1.0000
  I   I10       1.0  0.65995  0.12358  0.21196  1.0000
  I   I11       1.0  0.10409  0.65784  0.88934  1.0000
  I   I12       1.0  0.05403  0.71295  0.35287  1.0000
  I   I13       1.0  0.36649  0.21553  0.75123  1.0000
  I   I14       1.0  0.03301  0.29813  0.96341  1.0000
  I   I15       1.0  0.18857  0.84561  0.97053  1.0000
  I   I16       1.0  0.90709  0.13948  0.63277  1.0000
  I   I17       1.0  0.43336  0.40115  0.73392  1.0000
  I   I18       1.0  0.03019  0.41897  0.20846  1.0000
  I   I19       1.0  0.57139  0.95919  0.16960  1.0000
  I   I20       1.0  0.07154  0.73393  0.81221  1.0000
  I   I21       1.0  0.34790  0.45268  0.68840  1.0000
  I   I22       1.0  0.43125  0.89209  0.87785  1.0000
  I   I23       1.0  0.46900  0.85109  0.75477  1.0000
  I   I24       1.0  0.46442  0.99063  0.60161  1.0000
  I   I25       1.0  0.24747  0.22408  0.44508  1.0000
  I   I26       1.0  0.27589  0.34871  0.92740  1.0000
  I   I27       1.0  0.45375  0.55939  0.75334  1.0000
  I   I28       1.0  0.57932  0.59728  0.59725  1.0000
  I   I29       1.0  0.02524  0.24489  0.44984  1.0000
  I   I30       1.0  0.78217  0.51710  0.74594  1.0000
  I   I31       1.0  0.71838  0.45286  0.33701  1.0000
  I   I32       1.0  0.95904  0.97485  0.11746  1.0000
  I   I33       1.0  0.32494  0.92847  0.47978  1.0000
  I   I34       1.0  0.62648  0.45823  0.99827  1.0000
  I   I35       1.0  0.97412  0.48078  0.55557  1.0000
  I   I36       1.0  0.92684  0.75116  0.56631  1.0000
  I   I37       1.0  0.10243  0.17897  0.69803  1.0000
  I   I38       1.0  0.30859  0.25104  0.15066  1.0000
  I   I39       1.0  0.03631  0.29288  0.79597  1.0000
  I   I40       1.0  0.61237  0.61584  0.20166  1.0000
  I   I41       1.0  0.25695  0.78437  0.38965  1.0000
  I   I42       1.0  0.05521  0.55424  0.19472  1.0000
  I   I43       1.0  0.10228  0.93927  0.54645  1.0000
  I   I44       1.0  0.78755  0.68751  0.82530  1.0000
  I   I45       1.0  0.70178  0.37705  0.53863  1.0000
  I   I46       1.0  0.88995  0.03600  0.29956  1.0000
  I   I47       1.0  0.55499  0.28634  0.15387  1.0000
  I   I48       1.0  0.42925  0.49338  0.12310  1.0000
  I   I49       1.0  0.89321  0.80636  0.72695  1.0000
  I   I50       1.0  0.76692  0.04199  0.84321  1.0000
  I   I51       1.0  0.83840  0.01851  0.79413  1.0000
  I   I52       1.0  0.42318  0.44738  0.41851  1.0000
  I   I53       1.0  0.01782  0.74763  0.20450  1.0000
  I   I54       1.0  0.22317  0.11769  0.04804  1.0000
  I   I55       1.0  0.03432  0.86501  0.94273  1.0000
  I   I56       1.0  0.18141  0.70593  0.34087  1.0000
  I   I57       1.0  0.77996  0.23607  0.22450  1.0000
  I   I58       1.0  0.67344  0.09619  0.33269  1.0000
  I   I59       1.0  0.67851  0.15225  0.35021  1.0000
  I   I60       1.0  0.53574  0.66267  0.15807  1.0000
  I   I61       1.0  0.38709  0.14042  0.72007  1.0000
  I   I62       1.0  0.32692  0.18768  0.65259  1.0000
  I   I63       1.0  0.08903  0.30221  0.97815  1.0000
  I   I64       1.0  0.90417  0.08303  0.66482  1.0000
  I   I65       1.0  0.90887  0.18770  0.51375  1.0000
  I   I66       1.0  0.45979  0.32677  0.70246  1.0000
  I   I67       1.0  0.78586  0.71213  0.33969  1.0000
  I   I68       1.0  0.62349  0.00635  0.11993  1.0000
  I   I69       1.0  0.21547  0.53566  0.62523  1.0000
  I   I70       1.0  0.49953  0.94509  0.43488  1.0000
  I   I71       1.0  0.45285  0.82191  0.88120  1.0000
  I   I72       1.0  0.04353  0.81620  0.40702  1.0000
  I   I73       1.0  0.51063  0.53309  0.83161  1.0000
  I   I74       1.0  0.26213  0.36200  0.79030  1.0000
  I   I75       1.0  0.22995  0.32745  0.72950  1.0000
  I   I76       1.0  0.66332  0.56324  0.67701  1.0000
  I   I77       1.0  0.61355  0.54202  0.69750  1.0000
  I   I78       1.0  0.96234  0.23929  0.41725  1.0000
  I   I79       1.0  0.39208  0.91605  0.56104  1.0000
  I   I80       1.0  0.86233  0.34374  0.29916  1.0000
  I   I81       1.0  0.85665  0.99673  0.12391  1.0000
  I   I82       1.0  0.90088  0.71264  0.44169  1.0000
  I   I83       1.0  0.59187  0.53263  0.94006  1.0000
  I   I84       1.0  0.97951  0.48316  0.74143  1.0000
  I   I85       1.0  0.07664  0.24807  0.62933  1.0000
  I   I86       1.0  0.58391  0.33666  0.55968  1.0000
  I   I87       1.0  0.33383  0.28600  0.23429  1.0000
  I   I88       1.0  0.16213  0.61459  0.16374  1.0000
  I   I89       1.0  0.60354  0.64302  0.35541  1.0000
  I   I90       1.0  0.20840  0.87026  0.42028  1.0000
  I   I91       1.0  0.72357  0.31195  0.61782  1.0000
  I   I92       1.0  0.97040  0.06960  0.88629  1.0000
  I   I93       1.0  0.78160  0.66026  0.96068  1.0000
  I   I94       1.0  0.40489  0.55306  0.09767  1.0000
  I   I95       1.0  0.88655  0.97311  0.52080  1.0000
  I   I96       1.0  0.58598  0.22396  0.09191  1.0000
  I   I97       1.0  0.75504  0.79663  0.62584  1.0000
  I   I98       1.0  0.88752  0.85948  0.82132  1.0000
  I   I99       1.0  0.80365  0.04031  0.66965  1.0000
  I   I100      1.0  0.39464  0.52196  0.34228  1.0000
  I   I101      1.0  0.46510  0.37170  0.37118  1.0000
  I   I102      1.0  0.08489  0.70904  0.22494  1.0000
  I   I103      1.0  0.12115  0.81429  0.82784  1.0000
  I   I104      1.0  0.09904  0.88542  0.88764  1.0000
  I   I105      1.0  0.67999  0.30440  0.19727  1.0000
  I   I106      1.0  0.59341  0.74048  0.03576  1.0000
  I   I107      1.0  0.62589  0.18912  0.25124  1.0000
  I   I108      1.0  0.55965  0.70779  0.17558  1.0000
  I   I109      1.0  0.20760  0.92122  0.89639  1.0000
  I   I110      1.0  0.38586  0.17669  0.57828  1.0000
  I   I111      1.0  0.09179  0.25667  0.87730  1.0000
  I   I112      1.0  0.02396  0.49000  0.21485  1.0000
  I   I113      1.0  0.95269  0.11707  0.54241  1.0000
  I   I114      1.0  0.12035  0.50677  0.08870  1.0000
  I   I115      1.0  0.67856  0.76357  0.38498  1.0000
  I   I116      1.0  0.72498  0.70669  0.32627  1.0000
  I   I117      1.0  0.48145  0.03815  0.09611  1.0000
  I   I118      1.0  0.43682  0.97173  0.48297  1.0000
  I   I119      1.0  0.40558  0.01203  0.37025  1.0000
  I   I120      1.0  0.09766  0.83584  0.45794  1.0000
  I   I121      1.0  0.44741  0.56613  0.62617  1.0000
  I   I122      1.0  0.22720  0.30407  0.56396  1.0000
  I   I123      1.0  0.32379  0.35664  0.83549  1.0000
  I   I124      1.0  0.75676  0.55176  0.89658  1.0000
  I   I125      1.0  0.55407  0.60430  0.73486  1.0000
  I   I126      1.0  0.98032  0.23618  0.29027  1.0000
  I   I127      1.0  0.30540  0.90843  0.71546  1.0000
  I   I128      1.0  0.80877  0.36265  0.17435  1.0000
  I   I129      1.0  0.89384  0.03460  0.11271  1.0000
  I   I130      1.0  0.03671  0.41258  0.60918  1.0000
  I   I131      1.0  0.90891  0.77415  0.41695  1.0000
  I   I132      1.0  0.65398  0.47070  0.88508  1.0000
  I   I133      1.0  0.38682  0.21619  0.17233  1.0000
  I   I134      1.0  0.60896  0.24726  0.44732  1.0000
  I   I135      1.0  0.67361  0.22889  0.41240  1.0000
  I   I136      1.0  0.26959  0.86389  0.41000  1.0000
  I   I137      1.0  0.14845  0.54789  0.14473  1.0000
  I   I138      1.0  0.56677  0.56634  0.21444  1.0000
  I   I139      1.0  0.76200  0.33861  0.63878  1.0000
  I   I140      1.0  0.04943  0.04945  0.86651  1.0000
  I   I141      1.0  0.80027  0.71784  0.94832  1.0000
  I   I142      1.0  0.46975  0.54089  0.09377  1.0000
  I   I143      1.0  0.85345  0.07516  0.45129  1.0000
  I   I144      1.0  0.57982  0.30933  0.04692  1.0000
  I   I145      1.0  0.93052  0.86703  0.74651  1.0000
  I   I146      1.0  0.75394  0.02900  0.72971  1.0000
  I   I147      1.0  0.79141  0.84581  0.66560  1.0000
  I   I148      1.0  0.38916  0.40924  0.38889  1.0000
  I   I149      1.0  0.04449  0.81394  0.23592  1.0000
  I   I150      1.0  0.23369  0.06235  0.14533  1.0000
  I   I151      1.0  0.08338  0.86165  0.73865  1.0000
  I   I152      1.0  0.29784  0.59189  0.27569  1.0000
  I   I153      1.0  0.72529  0.31835  0.27374  1.0000
  I   I154      1.0  0.14534  0.90836  0.64122  1.0000
  I   I155      1.0  0.14274  0.67946  0.80678  1.0000
  I   I156      1.0  0.62360  0.72136  0.18123  1.0000
  I   I157      1.0  0.27315  0.78537  0.85557  1.0000
  I   I158      1.0  0.02468  0.32968  0.11966  1.0000
  I   I159      1.0  0.21001  0.79088  0.89988  1.0000
  I   I160      1.0  0.99040  0.39460  0.32088  1.0000
  I   I161      1.0  0.04906  0.50639  0.08680  1.0000
  I   I162      1.0  0.97548  0.46666  0.27506  1.0000
  I   I163      1.0  0.74560  0.73953  0.45355  1.0000
  I   I164      1.0  0.64275  0.93665  0.15940  1.0000
  I   I165      1.0  0.28172  0.48839  0.55513  1.0000
  I   I166      1.0  0.48713  0.92289  0.55338  1.0000
  I   I167      1.0  0.51803  0.80714  0.85684  1.0000
  I   I168      1.0  0.44932  0.08255  0.49602  1.0000
  I   I169      1.0  0.19488  0.25808  0.52285  1.0000
  I   I170      1.0  0.19025  0.21429  0.37738  1.0000
  I   I171      1.0  0.51244  0.51660  0.62669  1.0000
  I   I172      1.0  0.72368  0.52329  0.97277  1.0000
  I   I173      1.0  0.02711  0.18980  0.35508  1.0000
  I   I174      1.0  0.79133  0.44533  0.77912  1.0000
  I   I175      1.0  0.80474  0.41570  0.32980  1.0000
  I   I176      1.0  0.90683  0.97207  0.20419  1.0000
  I   I177      1.0  0.32185  0.94882  0.61744  1.0000
  I   I178      1.0  0.97706  0.75542  0.46634  1.0000
  I   I179      1.0  0.55879  0.49019  0.94236  1.0000
  I   I180      1.0  0.96446  0.44310  0.66672  1.0000
  I   I181      1.0  0.14203  0.21260  0.76508  1.0000
  I   I182      1.0  0.55489  0.29394  0.50693  1.0000
  I   I183      1.0  0.38234  0.28311  0.12448  1.0000
  I   I184      1.0  0.16664  0.57937  0.03291  1.0000
  I   I185      1.0  0.64350  0.54519  0.16275  1.0000
  I   I186      1.0  0.30415  0.77342  0.26183  1.0000
  I   I187      1.0  0.99415  0.12163  0.89253  1.0000
  I   I188      1.0  0.73155  0.72132  0.00099  1.0000
  I   I189      1.0  0.72098  0.40298  0.66178  1.0000
  I   I190      1.0  0.86159  0.10564  0.35761  1.0000
  I   I191      1.0  0.60677  0.19046  0.96842  1.0000
  I   I192      1.0  0.49872  0.42981  0.13588  1.0000
  I   I193      1.0  0.94424  0.78985  0.87023  1.0000
  I   I194      1.0  0.58026  0.11080  0.98987  1.0000
  I   I195      1.0  0.71820  0.87866  0.61568  1.0000
  I   I196      1.0  0.45791  0.43203  0.28510  1.0000
  I   I197      1.0  0.05396  0.99597  0.62460  1.0000
  I   I198      1.0  0.28591  0.05246  0.05562  1.0000
  I   I199      1.0  0.06529  0.89354  0.01587  1.0000
  I   I200      1.0  0.32481  0.62309  0.39008  1.0000
  I   I201      1.0  0.79936  0.30641  0.24596  1.0000
  I   I202      1.0  0.71943  0.09025  0.43010  1.0000
  I   I203      1.0  0.27682  0.47124  0.70792  1.0000
  I   I204      1.0  0.57138  0.63844  0.04442  1.0000
  I   I205      1.0  0.41218  0.24098  0.66299  1.0000
  I   I206      1.0  0.08707  0.30593  0.10475  1.0000
  I   I207      1.0  0.26496  0.82011  0.98372  1.0000
  I   I208      1.0  0.91897  0.07970  0.52717  1.0000
  I   I209      1.0  0.11043  0.45280  0.03342  1.0000
  I   I210      1.0  0.05914  0.37673  0.29610  1.0000
  I   I211      1.0  0.73741  0.80683  0.36722  1.0000
  I   I212      1.0  0.61309  0.98921  0.24734  1.0000
  I   I213      1.0  0.26351  0.55920  0.56459  1.0000
  I   I214      1.0  0.45318  0.93805  0.36409  1.0000
  I   I215      1.0  0.36217  0.88653  0.90763  1.0000
  I   I216      1.0  0.41050  0.04970  0.53022  1.0000
  I   I217      1.0  0.19548  0.27904  0.35980  1.0000
  I   I218      1.0  0.34885  0.29577  0.89634  1.0000
  I   I219      1.0  0.49447  0.48224  0.75941  1.0000
  I   I220      1.0  0.51518  0.64741  0.62399  1.0000
  I   I221      1.0  0.00362  0.28303  0.36894  1.0000
  I   I222      1.0  0.83108  0.46029  0.83687  1.0000
  I   I223      1.0  0.75602  0.42860  0.19560  1.0000
  I   I224      1.0  0.86223  0.05468  0.00306  1.0000
  I   I225      1.0  0.25452  0.94650  0.61612  1.0000
  I   I226      1.0  0.96276  0.68805  0.52357  1.0000
  I   I227      1.0  0.59416  0.49173  0.83509  1.0000
  I   I228      1.0  0.96228  0.53666  0.64176  1.0000
  I   I229      1.0  0.09306  0.28289  0.71711  1.0000
  I   I230      1.0  0.68710  0.19614  0.54011  1.0000
  I   I231      1.0  0.25483  0.33144  0.10530  1.0000
  I   I232      1.0  0.10656  0.63986  0.05335  1.0000
  I   I233      1.0  0.57977  0.61123  0.29513  1.0000
  I   I234      1.0  0.30760  0.71728  0.36426  1.0000
  I   I235      1.0  0.12931  0.98482  0.51482  1.0000
  I   I236      1.0  0.74039  0.71317  0.13649  1.0000
  I   I237      1.0  0.77271  0.36610  0.49835  1.0000
  I   I238      1.0  0.81849  0.04903  0.54650  1.0000
  I   I239      1.0  0.54047  0.26821  0.99063  1.0000
  I   I240      1.0  0.46878  0.48518  0.22869  1.0000
  I   I241      1.0  0.93283  0.83127  0.64730  1.0000
  I   I242      1.0  0.78361  0.08688  0.76662  1.0000
  I   I243      1.0  0.74776  0.82945  0.75287  1.0000
  I   I244      1.0  0.46835  0.47380  0.37947  1.0000
  I   I245      1.0  0.09407  0.75042  0.31268  1.0000
  I   I246      1.0  0.27492  0.00185  0.14325  1.0000
  I   I247      1.0  0.03676  0.91184  0.83366  1.0000
  I   I248      1.0  0.22487  0.65493  0.25890  1.0000
  I   I249      1.0  0.70747  0.24897  0.27347  1.0000
  I   I250      1.0  0.59882  0.14730  0.28894  1.0000
  I   I251      1.0  0.09516  0.67282  0.72184  1.0000
  I   I252      1.0  0.53525  0.71028  0.05162  1.0000
  I   I253      1.0  0.35540  0.24357  0.61621  1.0000
  I   I254      1.0  0.07221  0.22282  0.99377  1.0000
  I   I255      1.0  0.22375  0.86052  0.87491  1.0000
  I   I256      1.0  0.97412  0.16150  0.60622  1.0000
  I   I257      1.0  0.10821  0.43225  0.15354  1.0000
  I   I258      1.0  0.99785  0.46619  0.09353  1.0000
  I   I259      1.0  0.68175  0.81163  0.45381  1.0000
  I   I260      1.0  0.52924  0.97539  0.03933  1.0000
  I   I261      1.0  0.25777  0.53700  0.71617  1.0000
  I   I262      1.0  0.47720  0.98974  0.32466  1.0000
  I   I263      1.0  0.49607  0.88154  0.83711  1.0000
  I   I264      1.0  0.44303  0.06741  0.63561  1.0000
  I   I265      1.0  0.14332  0.27955  0.43897  1.0000
  I   I266      1.0  0.22657  0.29818  0.84338  1.0000
  I   I267      1.0  0.45208  0.50036  0.62825  1.0000
  I   I268      1.0  0.54189  0.68452  0.68476  1.0000
  I   I269      1.0  0.97474  0.28113  0.53971  1.0000
  I   I270      1.0  0.76265  0.47537  0.88728  1.0000
  I   I271      1.0  0.78074  0.37578  0.28926  1.0000
  I   I272      1.0  0.91667  0.98830  0.99363  1.0000
  I   I273      1.0  0.30681  0.87412  0.57279  1.0000
  I   I274      1.0  0.91700  0.68732  0.61452  1.0000
  I   I275      1.0  0.61183  0.43011  0.84975  1.0000
  I   I276      1.0  0.03717  0.47457  0.65525  1.0000
  I   I277      1.0  0.14048  0.20481  0.63124  1.0000
  I   I278      1.0  0.62048  0.23558  0.58335  1.0000
  I   I279      1.0  0.26687  0.28046  0.99411  1.0000
  I   I280      1.0  0.10489  0.55841  0.24869  1.0000
  I   I281      1.0  0.63818  0.55262  0.29289  1.0000
  I   I282      1.0  0.24890  0.83023  0.52235  1.0000
  I   I283      1.0  0.18912  0.91630  0.56957  1.0000
  I   I284      1.0  0.79843  0.64744  0.10066  1.0000
  I   I285      1.0  0.73320  0.42795  0.55205  1.0000
  I   I286      1.0  0.81430  0.07646  0.30494  1.0000
  I   I287      1.0  0.59988  0.24956  0.91029  1.0000
  I   I288      1.0  0.44115  0.54492  0.96367  1.0000
  I   I289      1.0  0.98148  0.79362  0.77812  1.0000
  I   I290      1.0  0.54863  0.11180  0.86837  1.0000
  I   I291      1.0  0.83327  0.97434  0.62544  1.0000
  I   I292      1.0  0.42283  0.38460  0.26571  1.0000
  I   I293      1.0  0.97291  0.83721  0.23818  1.0000
  I   I294      1.0  0.28356  0.06792  0.21176  1.0000
  I   I295      1.0  0.01611  0.94959  0.94806  1.0000
  I   I296      1.0  0.25439  0.68172  0.34910  1.0000
  I   I297      1.0  0.74340  0.22394  0.15517  1.0000
  I   I298      1.0  0.06484  0.92421  0.62065  1.0000
  I   I299      1.0  0.66172  0.08869  0.47471  1.0000
  I   I300      1.0  0.61419  0.67631  0.09225  1.0000
  I   I301      1.0  0.21272  0.89766  0.02200  1.0000
  I   I302      1.0  0.42606  0.21359  0.53949  1.0000
  I   I303      1.0  0.13214  0.22974  0.01508  1.0000
  I   I304      1.0  0.02116  0.42894  0.39027  1.0000
  I   I305      1.0  0.97670  0.05566  0.63296  1.0000
  I   I306      1.0  0.47881  0.33963  0.84218  1.0000
  I   I307      1.0  0.66763  0.83069  0.31442  1.0000
  I   I308      1.0  0.55212  0.01952  0.13966  1.0000
  I   I309      1.0  0.32818  0.51058  0.64636  1.0000
  I   I310      1.0  0.54341  0.93939  0.53795  1.0000
  I   I311      1.0  0.37920  0.88922  0.78014  1.0000
  I   I312      1.0  0.06246  0.81728  0.56433  1.0000
  I   I313      1.0  0.50543  0.56369  0.70188  1.0000
  I   I314      1.0  0.27145  0.27372  0.47173  1.0000
  I   I315      1.0  0.30002  0.29179  0.81513  1.0000
  I   I316      1.0  0.71992  0.52014  0.79519  1.0000
  I   I317      1.0  0.60944  0.63801  0.67300  1.0000
  I   I318      1.0  0.99883  0.32772  0.51448  1.0000
  I   I319      1.0  0.35810  0.87992  0.64551  1.0000
  I   I320      1.0  0.83189  0.40557  0.18155  1.0000
  I   I321      1.0  0.83297  0.00786  0.99854  1.0000
  I   I322      1.0  0.86283  0.74202  0.55976  1.0000
  I   I323      1.0  0.64854  0.47290  0.74603  1.0000
  I   I324      1.0  0.91857  0.49828  0.69067  1.0000
  I   I325      1.0  0.01395  0.30843  0.67419  1.0000
  I   I326      1.0  0.56789  0.30085  0.63797  1.0000
  I   I327      1.0  0.23498  0.27787  0.12245  1.0000
  I   I328      1.0  0.11522  0.49195  0.19772  1.0000
  I   I329      1.0  0.62818  0.57733  0.43080  1.0000
  I   I330      1.0  0.31201  0.78900  0.42951  1.0000
  I   I331      1.0  0.66106  0.37181  0.64267  1.0000
  I   I332      1.0  0.14982  0.97498  0.64927  1.0000
  I   I333      1.0  0.73102  0.73847  0.88376  1.0000
  I   I334      1.0  0.52775  0.47647  0.14304  1.0000
  I   I335      1.0  0.89512  0.02977  0.53951  1.0000
  I   I336      1.0  0.62897  0.25493  0.14650  1.0000
  I   I337      1.0  0.96063  0.83648  0.89511  1.0000
  I   I338      1.0  0.51557  0.18106  0.95176  1.0000
  I   I339      1.0  0.77743  0.96779  0.71065  1.0000
  I   I340      1.0  0.39200  0.46460  0.30394  1.0000
  I   I341      1.0  0.01540  0.78882  0.31668  1.0000
  I   I342      1.0  0.20790  0.14313  0.17620  1.0000
  I   I343      1.0  0.05254  0.83221  0.83230  1.0000
  I   I344      1.0  0.18848  0.63412  0.35761  1.0000
  I   I345      1.0  0.74176  0.29243  0.14602  1.0000
  I   I346      1.0  0.08587  0.94517  0.73534  1.0000
  I   I347      1.0  0.65146  0.16418  0.46095  1.0000
  I   I348      1.0  0.55472  0.77593  0.13038  1.0000
  I   I349      1.0  0.14425  0.92254  0.94575  1.0000
  I   I350      1.0  0.42745  0.17137  0.69537  1.0000
  I   I351      1.0  0.02911  0.36761  0.02252  1.0000
  I   I352      1.0  0.95045  0.50381  0.17678  1.0000
  I   I353      1.0  0.90864  0.20127  0.65075  1.0000
  I   I354      1.0  0.51038  0.35844  0.72514  1.0000
  I   I355      1.0  0.72765  0.76583  0.28173  1.0000
  I   I356      1.0  0.49681  0.97928  0.18083  1.0000
  I   I357      1.0  0.31472  0.48424  0.80637  1.0000
  I   I358      1.0  0.49190  0.00819  0.50505  1.0000
  I   I359      1.0  0.39685  0.82406  0.83504  1.0000
  I   I360      1.0  0.11318  0.76033  0.46676  1.0000
  I   I361      1.0  0.55318  0.48789  0.73698  1.0000
  I   I362      1.0  0.26790  0.23272  0.58264  1.0000
  I   I363      1.0  0.20420  0.36633  0.85011  1.0000
  I   I364      1.0  0.68612  0.56975  0.88350  1.0000
  I   I365      1.0  0.61105  0.60680  0.76495  1.0000
  I   I366      1.0  0.93837  0.32597  0.43402  1.0000
  I   I367      1.0  0.38899  0.87153  0.50800  1.0000
  I   I368      1.0  0.76025  0.47476  0.26310  1.0000
  I   I369      1.0  0.91983  0.93907  0.07879  1.0000
  I   I370      1.0  0.97833  0.70838  0.40100  1.0000
  I   I371      1.0  0.68311  0.40335  0.80906  1.0000
  I   I372      1.0  0.04731  0.41966  0.72981  1.0000
  I   I373      1.0  0.05984  0.22516  0.76274  1.0000
  I   I374      1.0  0.64487  0.28024  0.52356  1.0000
  I   I375      1.0  0.32398  0.28316  0.06446  1.0000
  I   I376      1.0  0.08925  0.59908  0.13323  1.0000
  I   I377      1.0  0.67448  0.58780  0.35645  1.0000
  I   I378      1.0  0.36039  0.73414  0.36489  1.0000
  I   I379      1.0  0.71028  0.35102  0.72850  1.0000
  I   I380      1.0  0.02213  0.06449  0.99808  1.0000
  I   I381      1.0  0.73193  0.65946  0.06858  1.0000
  I   I382      1.0  0.49415  0.48165  0.03321  1.0000
  I   I383      1.0  0.84752  0.02613  0.40275  1.0000
  I   I384      1.0  0.63742  0.23014  0.02653  1.0000
