data_image0
_chemical_formula_structural       Ti96I384
_chemical_formula_sum              "Ti96 I384"
_cell_length_a       74.3471
_cell_length_b       74.2893
_cell_length_c       36.3599
_cell_angle_alpha    88.7757
_cell_angle_beta     88.7757
_cell_angle_gamma    62.1586

_space_group_name_H-M_alt    "P 1"
_space_group_IT_number       1

loop_
  _space_group_symop_operation_xyz
  'x, y, z'

loop_
  _atom_site_type_symbol
  _atom_site_label
  _atom_site_symmetry_multiplicity
  _atom_site_fract_x
  _atom_site_fract_y
  _atom_site_fract_z
  _atom_site_occupancy
  Ti  Ti1       1.0  0.82287  0.18171  0.90104  1.0000
  Ti  Ti2       1.0  0.48068  0.68101  0.55757  1.0000
  Ti  Ti3       1.0  0.12488  0.04080  0.10163  1.0000
  Ti  Ti4       1.0  0.04950  0.28446  0.99379  1.0000
  Ti  Ti5       1.0  0.23166  0.04919  0.61180  1.0000
  Ti  Ti6       1.0  0.43454  0.36306  0.40661  1.0000
  Ti  Ti7       1.0  0.60234  0.35885  0.85499  1.0000
  Ti  Ti8       1.0  0.33322  0.62306  0.08136  1.0000
  Ti  Ti9       1.0  0.25527  0.31052  0.54300  1.0000
  Ti  Ti10      1.0  0.61819  0.73193  0.31540  1.0000
  Ti  Ti11      1.0  0.27342  0.11854  0.36949  1.0000
  Ti  Ti12      1.0  0.93931  0.07007  0.71440  1.0000
  Ti  Ti13      1.0  0.85012  0.81288  0.48392  1.0000
  Ti  Ti14      1.0  0.04297  0.33806  0.98346  1.0000
  Ti  Ti15      1.0  0.81259  0.62518  0.71737  1.0000
  Ti  Ti16      1.0  0.11614  0.47071  0.41475  1.0000
  Ti  Ti17      1.0  0.06874  0.02774  0.59052  1.0000
  Ti  Ti18      1.0  0.17532  0.28068  0.93823  1.0000
  Ti  Ti19      1.0  0.99667  0.00933  0.93981  1.0000
  Ti  Ti20      1.0  0.18843  0.52931  0.09261  1.0000
  Ti  Ti21      1.0  0.32719  0.63929  0.16112  1.0000
  Ti  Ti22      1.0  0.89481  0.30208  0.58444  1.0000
  Ti  Ti23      1.0  0.93578  0.84208  0.43076  1.0000
  Ti  Ti24      1.0  0.70274  0.26904  0.61834  1.0000
  Ti  Ti25      1.0  0.62363  0.53947  0.43309  1.0000
  Ti  Ti26      1.0  0.70556  0.95342  0.08630  1.0000
  Ti  Ti27      1.0  0.51228  0.43785  0.28032  1.0000
  Ti  Ti28      1.0  0.34570  0.12507  0.66459  1.0000
  Ti  Ti29      1.0  0.34081  0.78640  0.67064  1.0000
  Ti  Ti30      1.0  0.47705  0.84076  0.68611  1.0000
  Ti  Ti31      1.0  0.25784  0.74175  0.38765  1.0000
  Ti  Ti32      1.0  0.58253  0.72673  0.91286  1.0000
  Ti  Ti33      1.0  0.48753  0.53093  0.20012  1.0000
  Ti  Ti34      1.0  0.61671  0.57306  0.77042  1.0000
  Ti  Ti35      1.0  0.87332  0.64276  0.25914  1.0000
  Ti  Ti36      1.0  0.58802  0.26318  0.56584  1.0000
  Ti  Ti37      1.0  0.87112  0.72056  0.75508  1.0000
  Ti  Ti38      1.0  0.34180  0.25614  0.78933  1.0000
  Ti  Ti39      1.0  0.85456  0.62274  0.03263  1.0000
  Ti  Ti40      1.0  0.56399  0.74068  0.34756  1.0000
  Ti  Ti41      1.0  0.92166  0.40193  0.09603  1.0000
  Ti  Ti42      1.0  0.01203  0.45857  0.19946  1.0000
  Ti  Ti43      1.0  0.89024  0.90129  0.99698  1.0000
  Ti  Ti44      1.0  0.91903  0.46021  0.10712  1.0000
  Ti  Ti45      1.0  0.31588  0.20133  0.35709  1.0000
  Ti  Ti46      1.0  0.59341  0.99809  0.14205  1.0000
  Ti  Ti47      1.0  0.14398  0.95825  0.79206  1.0000
  Ti  Ti48      1.0  0.07278  0.06507  0.95900  1.0000
  Ti  Ti49      1.0  0.92094  0.89992  0.92742  1.0000
  Ti  Ti50      1.0  0.14026  0.11492  0.48391  1.0000
  Ti  Ti51      1.0  0.43500  0.68414  0.55398  1.0000
  Ti  Ti52      1.0  0.79606  0.46643  0.67170  1.0000
  Ti  Ti53      1.0  0.14107  0.81138  0.43457  1.0000
  Ti  Ti54      1.0  0.63389  0.96423  0.48934  1.0000
  Ti  Ti55      1.0  0.59817  0.69617  0.03159  1.0000
  Ti  Ti56      1.0  0.47905  0.94324  0.23568  1.0000
  Ti  Ti57      1.0  0.25634  0.34187  0.57305  1.0000
  Ti  Ti58      1.0  0.32668  0.73106  0.98686  1.0000
  Ti  Ti59      1.0  0.43927  0.52493  0.96093  1.0000
  Ti  Ti60      1.0  0.93052  0.11395  0.64083  1.0000
  Ti  Ti61      1.0  0.74265  0.74627  0.95167  1.0000
  Ti  Ti62      1.0  0.88429  0.76152  0.49177  1.0000
  Ti  Ti63      1.0  0.23092  0.53695  0.07417  1.0000
  Ti  Ti64      1.0  0.20998  0.24797  0.97350  1.0000
  Ti  Ti65      1.0  0.23308  0.73565  0.74575  1.0000
  Ti  Ti66      1.0  0.23516  0.47364  0.25147  1.0000
  Ti  Ti67      1.0  0.10809  0.24801  0.38810  1.0000
  Ti  Ti68      1.0  0.59825  0.09777  0.23894  1.0000
  Ti  Ti69      1.0  0.74956  0.95645  0.99241  1.0000
  Ti  Ti70      1.0  0.11613  0.29530  0.41419  1.0000
  Ti  Ti71      1.0  0.87497  0.87730  0.31866  1.0000
  Ti  Ti72      1.0  0.21620  0.91419  0.81825  1.0000
  Ti  Ti73      1.0  0.54678  0.37700  0.22966  1.0000
  Ti  Ti74      1.0  0.64450  0.56035  0.33549  1.0000
  Ti  Ti75      1.0  0.40384  0.11168  0.83143  1.0000
  Ti  Ti76      1.0  0.37382  0.09914  0.59475  1.0000
  Ti  Ti77      1.0  0.84120  0.57887  0.65057  1.0000
  Ti  Ti78      1.0  0.35234  0.81517  0.74573  1.0000
  Ti  Ti79      1.0  0.37035  0.58613  0.70803  1.0000
  Ti  Ti80      1.0  0.19088  0.09616  0.12254  1.0000
  Ti  Ti81      1.0  0.64021  0.73289  0.84187  1.0000
  Ti  Ti82      1.0  0.90098  0.36778  0.27654  1.0000
  Ti  Ti83      1.0  0.02600  0.45355  0.81489  1.0000
  Ti  Ti84      1.0  0.58579  0.21422  0.55029  1.0000
  Ti  Ti85      1.0  0.84143  0.73745  0.69946  1.0000
  Ti  Ti86      1.0  0.56426  0.38414  0.75731  1.0000
  Ti  Ti87      1.0  0.33744  0.18512  0.25063  1.0000
  Ti  Ti88      1.0  0.74602  0.76978  0.16101  1.0000
  Ti  Ti89      1.0  0.37917  0.43986  0.13941  1.0000
  Ti  Ti90      1.0  0.07603  0.41982  0.21588  1.0000
  Ti  Ti91      1.0  0.25272  0.77114  0.15799  1.0000
  Ti  Ti92      1.0  0.78178  0.93630  0.79072  1.0000
  Ti  Ti93      1.0  0.76913  0.21917  0.53202  1.0000
  Ti  Ti94      1.0  0.10084  0.02128  0.98318  1.0000
  Ti  Ti95      1.0  0.89742  0.47303  0.92082  1.0000
  Ti  Ti96      1.0  0.91745  0.32803  0.66323  1.0000
  I   I1        1.0  0.21493  0.95015  0.83657  1.0000
  I   I2        1.0  0.45593  0.68802  0.61963  1.0000
  I   I3        1.0  0.92512  0.90987  0.99293  1.0000
  I   I4        1.0  0.13874  0.78662  0.38612  1.0000
  I   I5        1.0  0.42774  0.37133  0.47467  1.0000
  I   I6        1.0  0.66546  0.94868  0.44340  1.0000
  I   I7        1.0  0.36802  0.58841  0.07978  1.0000
  I   I8        1.0  0.45842  0.95423  0.29872  1.0000
  I   I9        1.0  0.24384  0.37682  0.54475  1.0000
  I   I10       1.0  0.63478  0.74492  0.25899  1.0000
  I   I11       1.0  0.26443  0.12430  0.44017  1.0000
  I   I12       1.0  0.24658  0.07517  0.58782  1.0000
  I   I13       1.0  0.83067  0.82214  0.54253  1.0000
  I   I14       1.0  0.26335  0.50267  0.07753  1.0000
  I   I15       1.0  0.80564  0.59348  0.69250  1.0000
  I   I16       1.0  0.65221  0.69880  0.31666  1.0000
  I   I17       1.0  0.21902  0.48184  0.18890  1.0000
  I   I18       1.0  0.17342  0.27612  0.02069  1.0000
  I   I19       1.0  0.17938  0.56451  0.06046  1.0000
  I   I20       1.0  0.24143  0.11751  0.33539  1.0000
  I   I21       1.0  0.31762  0.61465  0.02282  1.0000
  I   I22       1.0  0.93741  0.81893  0.37151  1.0000
  I   I23       1.0  0.88703  0.89606  0.27224  1.0000
  I   I24       1.0  0.13039  0.21069  0.38094  1.0000
  I   I25       1.0  0.63829  0.53856  0.50053  1.0000
  I   I26       1.0  0.37098  0.11056  0.79978  1.0000
  I   I27       1.0  0.47261  0.45791  0.28479  1.0000
  I   I28       1.0  0.36910  0.14089  0.66837  1.0000
  I   I29       1.0  0.37713  0.83044  0.75599  1.0000
  I   I30       1.0  0.49136  0.83395  0.75053  1.0000
  I   I31       1.0  0.21017  0.06326  0.16257  1.0000
  I   I32       1.0  0.65081  0.75957  0.81801  1.0000
  I   I33       1.0  0.40202  0.58923  0.70611  1.0000
  I   I34       1.0  0.89743  0.64964  0.22106  1.0000
  I   I35       1.0  0.60804  0.19701  0.61047  1.0000
  I   I36       1.0  0.63412  0.56281  0.83486  1.0000
  I   I37       1.0  0.84751  0.71759  0.63012  1.0000
  I   I38       1.0  0.82656  0.62713  0.08127  1.0000
  I   I39       1.0  0.89299  0.69277  0.70800  1.0000
  I   I40       1.0  0.95517  0.41592  0.10295  1.0000
  I   I41       1.0  0.09080  0.39929  0.27606  1.0000
  I   I42       1.0  0.54506  0.77912  0.37075  1.0000
  I   I43       1.0  0.29878  0.71767  0.97801  1.0000
  I   I44       1.0  0.89041  0.49770  0.09295  1.0000
  I   I45       1.0  0.30035  0.21013  0.22585  1.0000
  I   I46       1.0  0.94072  0.44262  0.91889  1.0000
  I   I47       1.0  0.15239  0.98436  0.76299  1.0000
  I   I48       1.0  0.07278  0.02540  0.93824  1.0000
  I   I49       1.0  0.89724  0.89980  0.06562  1.0000
  I   I50       1.0  0.44745  0.71224  0.51945  1.0000
  I   I51       1.0  0.49986  0.70117  0.56728  1.0000
  I   I52       1.0  0.16302  0.12588  0.15736  1.0000
  I   I53       1.0  0.16839  0.82381  0.45224  1.0000
  I   I54       1.0  0.64376  0.92808  0.51751  1.0000
  I   I55       1.0  0.58458  0.34382  0.89335  1.0000
  I   I56       1.0  0.30423  0.62227  0.13866  1.0000
  I   I57       1.0  0.91582  0.49188  0.93768  1.0000
  I   I58       1.0  0.58696  0.75792  0.26549  1.0000
  I   I59       1.0  0.43602  0.50397  0.91232  1.0000
  I   I60       1.0  0.91496  0.15209  0.65103  1.0000
  I   I61       1.0  0.89216  0.77361  0.42676  1.0000
  I   I62       1.0  0.90999  0.73537  0.55309  1.0000
  I   I63       1.0  0.22659  0.56090  0.01548  1.0000
  I   I64       1.0  0.10138  0.46311  0.35701  1.0000
  I   I65       1.0  0.21953  0.73871  0.67251  1.0000
  I   I66       1.0  0.22468  0.44933  0.28900  1.0000
  I   I67       1.0  0.02628  0.01724  0.92492  1.0000
  I   I68       1.0  0.16394  0.52380  0.04337  1.0000
  I   I69       1.0  0.79096  0.92941  0.99541  1.0000
  I   I70       1.0  0.10852  0.32066  0.36246  1.0000
  I   I71       1.0  0.92999  0.87794  0.45442  1.0000
  I   I72       1.0  0.11222  0.98191  0.83034  1.0000
  I   I73       1.0  0.50501  0.40818  0.24261  1.0000
  I   I74       1.0  0.68241  0.93710  0.07014  1.0000
  I   I75       1.0  0.68246  0.98538  0.12259  1.0000
  I   I76       1.0  0.82706  0.60079  0.59051  1.0000
  I   I77       1.0  0.82804  0.64439  0.74982  1.0000
  I   I78       1.0  0.85978  0.14815  0.90205  1.0000
  I   I79       1.0  0.46898  0.56866  0.17253  1.0000
  I   I80       1.0  0.28906  0.73095  0.33720  1.0000
  I   I81       1.0  0.55359  0.76202  0.88924  1.0000
  I   I82       1.0  0.93441  0.34801  0.23826  1.0000
  I   I83       1.0  0.01267  0.48635  0.85006  1.0000
  I   I84       1.0  0.54817  0.22289  0.57232  1.0000
  I   I85       1.0  0.87829  0.74436  0.70797  1.0000
  I   I86       1.0  0.27355  0.45990  0.25197  1.0000
  I   I87       1.0  0.87094  0.58522  0.02513  1.0000
  I   I88       1.0  0.53876  0.75063  0.29280  1.0000
  I   I89       1.0  0.89212  0.44293  0.08639  1.0000
  I   I90       1.0  0.10434  0.43310  0.21780  1.0000
  I   I91       1.0  0.21629  0.77896  0.14202  1.0000
  I   I92       1.0  0.81741  0.90797  0.78612  1.0000
  I   I93       1.0  0.94268  0.47690  0.10378  1.0000
  I   I94       1.0  0.09775  0.99528  0.02633  1.0000
  I   I95       1.0  0.55330  0.02935  0.14252  1.0000
  I   I96       1.0  0.94144  0.34175  0.63502  1.0000
  I   I97       1.0  0.15315  0.00260  0.11518  1.0000
  I   I98       1.0  0.82792  0.21324  0.88121  1.0000
  I   I99       1.0  0.43157  0.67715  0.48332  1.0000
  I   I100      1.0  0.04306  0.30679  0.05729  1.0000
  I   I101      1.0  0.72409  0.79895  0.11776  1.0000
  I   I102      1.0  0.26634  0.01850  0.63268  1.0000
  I   I103      1.0  0.55650  0.38577  0.82724  1.0000
  I   I104      1.0  0.56341  0.73393  0.98466  1.0000
  I   I105      1.0  0.26403  0.27250  0.53687  1.0000
  I   I106      1.0  0.95212  0.09747  0.71786  1.0000
  I   I107      1.0  0.59509  0.71115  0.29717  1.0000
  I   I108      1.0  0.91428  0.05399  0.69671  1.0000
  I   I109      1.0  0.78196  0.63242  0.77425  1.0000
  I   I110      1.0  0.89990  0.72323  0.46696  1.0000
  I   I111      1.0  0.21414  0.53639  0.14267  1.0000
  I   I112      1.0  0.20357  0.29171  0.94496  1.0000
  I   I113      1.0  0.26036  0.74992  0.73982  1.0000
  I   I114      1.0  0.03192  0.03979  0.61248  1.0000
  I   I115      1.0  0.07327  0.25285  0.41455  1.0000
  I   I116      1.0  0.09763  0.25770  0.31865  1.0000
  I   I117      1.0  0.56019  0.11698  0.23193  1.0000
  I   I118      1.0  0.87482  0.28209  0.59669  1.0000
  I   I119      1.0  0.07852  0.32250  0.43359  1.0000
  I   I120      1.0  0.24784  0.89512  0.77255  1.0000
  I   I121      1.0  0.57554  0.34110  0.24714  1.0000
  I   I122      1.0  0.58479  0.56575  0.45517  1.0000
  I   I123      1.0  0.42178  0.12154  0.78125  1.0000
  I   I124      1.0  0.50591  0.84693  0.65805  1.0000
  I   I125      1.0  0.36719  0.09200  0.69470  1.0000
  I   I126      1.0  0.32378  0.84114  0.79329  1.0000
  I   I127      1.0  0.52142  0.52016  0.24678  1.0000
  I   I128      1.0  0.08967  0.27030  0.00696  1.0000
  I   I129      1.0  0.62750  0.73224  0.77551  1.0000
  I   I130      1.0  0.62019  0.26731  0.56086  1.0000
  I   I131      1.0  0.86305  0.38065  0.24534  1.0000
  I   I132      1.0  0.87687  0.64736  0.32932  1.0000
  I   I133      1.0  0.87819  0.63756  0.05172  1.0000
  I   I134      1.0  0.37984  0.25617  0.80634  1.0000
  I   I135      1.0  0.22501  0.50791  0.28339  1.0000
  I   I136      1.0  0.04581  0.46991  0.21329  1.0000
  I   I137      1.0  0.76469  0.47455  0.71531  1.0000
  I   I138      1.0  0.40577  0.45062  0.16268  1.0000
  I   I139      1.0  0.24525  0.80764  0.16862  1.0000
  I   I140      1.0  0.76398  0.91210  0.79419  1.0000
  I   I141      1.0  0.74224  0.25136  0.49603  1.0000
  I   I142      1.0  0.10348  0.04636  0.90947  1.0000
  I   I143      1.0  0.09309  0.03701  0.10670  1.0000
  I   I144      1.0  0.89731  0.36432  0.70062  1.0000
  I   I145      1.0  0.78311  0.19863  0.92170  1.0000
  I   I146      1.0  0.48628  0.66947  0.48486  1.0000
  I   I147      1.0  0.10200  0.08490  0.09609  1.0000
  I   I148      1.0  0.79418  0.43709  0.64122  1.0000
  I   I149      1.0  0.22723  0.03683  0.54900  1.0000
  I   I150      1.0  0.42743  0.40084  0.38243  1.0000
  I   I151      1.0  0.57606  0.68173  0.05428  1.0000
  I   I152      1.0  0.35405  0.63455  0.02569  1.0000
  I   I153      1.0  0.21606  0.34832  0.56515  1.0000
  I   I154      1.0  0.87516  0.94635  0.00782  1.0000
  I   I155      1.0  0.29853  0.08045  0.37403  1.0000
  I   I156      1.0  0.91266  0.10607  0.58227  1.0000
  I   I157      1.0  0.79843  0.64690  0.66173  1.0000
  I   I158      1.0  0.21824  0.49107  0.07747  1.0000
  I   I159      1.0  0.71677  0.75918  0.01604  1.0000
  I   I160      1.0  0.23489  0.23564  0.91379  1.0000
  I   I161      1.0  0.06676  0.01969  0.52032  1.0000
  I   I162      1.0  0.18739  0.22986  0.98386  1.0000
  I   I163      1.0  0.96688  0.04139  0.97353  1.0000
  I   I164      1.0  0.60330  0.07059  0.19431  1.0000
  I   I165      1.0  0.30671  0.65687  0.21630  1.0000
  I   I166      1.0  0.88222  0.31667  0.65871  1.0000
  I   I167      1.0  0.97275  0.82574  0.45776  1.0000
  I   I168      1.0  0.68249  0.30569  0.59505  1.0000
  I   I169      1.0  0.61816  0.54697  0.35710  1.0000
  I   I170      1.0  0.64302  0.54471  0.27042  1.0000
  I   I171      1.0  0.52626  0.45098  0.22423  1.0000
  I   I172      1.0  0.33960  0.13985  0.59290  1.0000
  I   I173      1.0  0.31093  0.77616  0.65187  1.0000
  I   I174      1.0  0.47545  0.80893  0.65058  1.0000
  I   I175      1.0  0.28025  0.73721  0.44435  1.0000
  I   I176      1.0  0.58507  0.69775  0.87602  1.0000
  I   I177      1.0  0.38695  0.54924  0.67935  1.0000
  I   I178      1.0  0.92737  0.38121  0.31097  1.0000
  I   I179      1.0  0.01894  0.46813  0.74854  1.0000
  I   I180      1.0  0.58855  0.19027  0.49472  1.0000
  I   I181      1.0  0.81108  0.76505  0.65666  1.0000
  I   I182      1.0  0.58934  0.34516  0.75169  1.0000
  I   I183      1.0  0.32720  0.17009  0.40883  1.0000
  I   I184      1.0  0.72023  0.76636  0.20224  1.0000
  I   I185      1.0  0.35488  0.43517  0.19036  1.0000
  I   I186      1.0  0.99064  0.49480  0.22351  1.0000
  I   I187      1.0  0.76223  0.96456  0.83705  1.0000
  I   I188      1.0  0.90918  0.45187  0.17388  1.0000
  I   I189      1.0  0.28020  0.20675  0.34573  1.0000
  I   I190      1.0  0.61617  0.98415  0.20259  1.0000
  I   I191      1.0  0.16502  0.07697  0.49442  1.0000
  I   I192      1.0  0.12733  0.03302  0.01872  1.0000
  I   I193      1.0  0.35464  0.77959  0.60426  1.0000
  I   I194      1.0  0.10797  0.12868  0.44350  1.0000
  I   I195      1.0  0.12698  0.05642  0.15947  1.0000
  I   I196      1.0  0.00922  0.30191  0.97562  1.0000
  I   I197      1.0  0.32198  0.75629  0.93302  1.0000
  I   I198      1.0  0.46088  0.32815  0.38329  1.0000
  I   I199      1.0  0.61330  0.70338  0.95680  1.0000
  I   I200      1.0  0.49941  0.90513  0.22078  1.0000
  I   I201      1.0  0.23899  0.33489  0.47896  1.0000
  I   I202      1.0  0.47271  0.52391  0.95159  1.0000
  I   I203      1.0  0.73391  0.96647  0.07231  1.0000
  I   I204      1.0  0.96123  0.04644  0.66551  1.0000
  I   I205      1.0  0.84336  0.77704  0.50888  1.0000
  I   I206      1.0  0.07428  0.33003  0.02361  1.0000
  I   I207      1.0  0.85530  0.59451  0.70550  1.0000
  I   I208      1.0  0.09314  0.47279  0.47254  1.0000
  I   I209      1.0  0.08592  0.99230  0.61923  1.0000
  I   I210      1.0  0.33813  0.59780  0.75421  1.0000
  I   I211      1.0  0.10093  0.26832  0.45581  1.0000
  I   I212      1.0  0.15466  0.53967  0.13081  1.0000
  I   I213      1.0  0.72823  0.96009  0.93811  1.0000
  I   I214      1.0  0.93212  0.27492  0.59999  1.0000
  I   I215      1.0  0.91362  0.83563  0.47197  1.0000
  I   I216      1.0  0.70097  0.24407  0.56678  1.0000
  I   I217      1.0  0.64286  0.49837  0.42404  1.0000
  I   I218      1.0  0.41142  0.07362  0.83971  1.0000
  I   I219      1.0  0.55406  0.39974  0.27523  1.0000
  I   I220      1.0  0.88217  0.56024  0.62314  1.0000
  I   I221      1.0  0.34016  0.82426  0.67413  1.0000
  I   I222      1.0  0.33403  0.09353  0.63402  1.0000
  I   I223      1.0  0.22301  0.77704  0.38453  1.0000
  I   I224      1.0  0.60381  0.74278  0.88186  1.0000
  I   I225      1.0  0.45810  0.52726  0.23247  1.0000
  I   I226      1.0  0.90215  0.34177  0.32975  1.0000
  I   I227      1.0  0.88965  0.60392  0.24524  1.0000
  I   I228      1.0  0.59597  0.25499  0.63556  1.0000
  I   I229      1.0  0.09940  0.03660  0.59654  1.0000
  I   I230      1.0  0.30553  0.29008  0.79458  1.0000
  I   I231      1.0  0.83158  0.64103  0.97327  1.0000
  I   I232      1.0  0.04530  0.35891  0.92725  1.0000
  I   I233      1.0  0.94293  0.36471  0.12889  1.0000
  I   I234      1.0  0.98864  0.44313  0.24021  1.0000
  I   I235      1.0  0.96254  0.87556  0.92022  1.0000
  I   I236      1.0  0.80481  0.20669  0.49728  1.0000
  I   I237      1.0  0.27849  0.76263  0.10387  1.0000
  I   I238      1.0  0.85716  0.49963  0.91552  1.0000
  I   I239      1.0  0.89984  0.34142  0.59823  1.0000
  I   I240      1.0  0.04709  0.08245  0.90006  1.0000
  I   I241      1.0  0.82716  0.17193  0.83348  1.0000
  I   I242      1.0  0.41953  0.66072  0.58660  1.0000
  I   I243      1.0  0.58332  0.97129  0.11607  1.0000
  I   I244      1.0  0.75652  0.78538  0.21565  1.0000
  I   I245      1.0  0.10771  0.84558  0.43306  1.0000
  I   I246      1.0  0.39709  0.36362  0.39533  1.0000
  I   I247      1.0  0.60870  0.38275  0.90501  1.0000
  I   I248      1.0  0.31634  0.66399  0.10272  1.0000
  I   I249      1.0  0.29105  0.31561  0.52706  1.0000
  I   I250      1.0  0.41521  0.56236  0.98323  1.0000
  I   I251      1.0  0.29515  0.13508  0.35583  1.0000
  I   I252      1.0  0.90073  0.10762  0.67553  1.0000
  I   I253      1.0  0.81596  0.81912  0.44695  1.0000
  I   I254      1.0  0.01819  0.36260  0.02577  1.0000
  I   I255      1.0  0.73475  0.78408  0.94198  1.0000
  I   I256      1.0  0.26003  0.69977  0.77188  1.0000
  I   I257      1.0  0.84940  0.69930  0.73951  1.0000
  I   I258      1.0  0.14714  0.31802  0.92108  1.0000
  I   I259      1.0  0.14445  0.25569  0.39779  1.0000
  I   I260      1.0  0.59734  0.09629  0.31285  1.0000
  I   I261      1.0  0.36038  0.64217  0.15225  1.0000
  I   I262      1.0  0.89226  0.31306  0.51767  1.0000
  I   I263      1.0  0.88488  0.88133  0.38736  1.0000
  I   I264      1.0  0.55956  0.25410  0.52474  1.0000
  I   I265      1.0  0.63289  0.57119  0.41703  1.0000
  I   I266      1.0  0.73505  0.93122  0.02554  1.0000
  I   I267      1.0  0.52264  0.36603  0.19069  1.0000
  I   I268      1.0  0.31741  0.14186  0.71746  1.0000
  I   I269      1.0  0.38163  0.78327  0.77612  1.0000
  I   I270      1.0  0.36717  0.08975  0.53216  1.0000
  I   I271      1.0  0.24300  0.72259  0.35901  1.0000
  I   I272      1.0  0.64613  0.69262  0.85424  1.0000
  I   I273      1.0  0.49248  0.51652  0.13052  1.0000
  I   I274      1.0  0.59299  0.61332  0.77857  1.0000
  I   I275      1.0  0.83876  0.66680  0.22826  1.0000
  I   I276      1.0  0.61692  0.22496  0.52460  1.0000
  I   I277      1.0  0.87605  0.41069  0.28158  1.0000
  I   I278      1.0  0.34524  0.24090  0.85881  1.0000
  I   I279      1.0  0.31125  0.22251  0.42212  1.0000
  I   I280      1.0  0.78687  0.50411  0.64353  1.0000
  I   I281      1.0  0.89364  0.38652  0.06482  1.0000
  I   I282      1.0  0.03988  0.41525  0.20496  1.0000
  I   I283      1.0  0.91058  0.86621  0.95081  1.0000
  I   I284      1.0  0.76990  0.23521  0.59166  1.0000
  I   I285      1.0  0.37579  0.17731  0.26488  1.0000
  I   I286      1.0  0.90177  0.44820  0.97904  1.0000
  I   I287      1.0  0.13353  0.94229  0.73512  1.0000
  I   I288      1.0  0.08340  0.09436  0.96505  1.0000
  I   I289      1.0  0.91323  0.93120  0.88978  1.0000
  I   I290      1.0  0.12220  0.11435  0.54828  1.0000
  I   I291      1.0  0.47171  0.64890  0.56042  1.0000
  I   I292      1.0  0.82921  0.45498  0.71128  1.0000
  I   I293      1.0  0.12889  0.80304  0.49736  1.0000
  I   I294      1.0  0.60335  0.96766  0.45296  1.0000
  I   I295      1.0  0.64071  0.33443  0.84345  1.0000
  I   I296      1.0  0.45268  0.96626  0.18238  1.0000
  I   I297      1.0  0.24670  0.30813  0.61112  1.0000
  I   I298      1.0  0.36101  0.69802  0.97656  1.0000
  I   I299      1.0  0.15084  0.43776  0.42889  1.0000
  I   I300      1.0  0.77070  0.18140  0.55790  1.0000
  I   I301      1.0  0.75685  0.73184  0.89071  1.0000
  I   I302      1.0  0.85923  0.84109  0.46887  1.0000
  I   I303      1.0  0.59779  0.74904  0.37335  1.0000
  I   I304      1.0  0.18530  0.25816  0.88084  1.0000
  I   I305      1.0  0.13253  0.49551  0.42052  1.0000
  I   I306      1.0  0.60826  0.38017  0.79800  1.0000
  I   I307      1.0  0.98237  0.00880  0.87542  1.0000
  I   I308      1.0  0.24901  0.55596  0.10146  1.0000
  I   I309      1.0  0.34786  0.60098  0.19899  1.0000
  I   I310      1.0  0.87005  0.87992  0.02337  1.0000
  I   I311      1.0  0.83050  0.90100  0.31285  1.0000
  I   I312      1.0  0.22057  0.88794  0.86680  1.0000
  I   I313      1.0  0.56747  0.38173  0.17208  1.0000
  I   I314      1.0  0.62932  0.59656  0.31530  1.0000
  I   I315      1.0  0.42221  0.11767  0.88634  1.0000
  I   I316      1.0  0.40629  0.06436  0.61854  1.0000
  I   I317      1.0  0.40838  0.10252  0.57116  1.0000
  I   I318      1.0  0.32527  0.79876  0.74624  1.0000
  I   I319      1.0  0.38248  0.56095  0.77377  1.0000
  I   I320      1.0  0.05142  0.25482  0.03630  1.0000
  I   I321      1.0  0.62837  0.66578  0.06175  1.0000
  I   I322      1.0  0.62037  0.53936  0.75057  1.0000
  I   I323      1.0  0.01639  0.43326  0.87169  1.0000
  I   I324      1.0  0.56210  0.30114  0.56319  1.0000
  I   I325      1.0  0.88242  0.72958  0.81759  1.0000
  I   I326      1.0  0.57353  0.40266  0.70140  1.0000
  I   I327      1.0  0.31789  0.22936  0.31289  1.0000
  I   I328      1.0  0.55524  0.71545  0.38849  1.0000
  I   I329      1.0  0.40084  0.40916  0.10459  1.0000
  I   I330      1.0  0.09559  0.39330  0.17042  1.0000
  I   I331      1.0  0.33572  0.16672  0.31806  1.0000
  I   I332      1.0  0.32978  0.75031  0.04586  1.0000
  I   I333      1.0  0.94399  0.38676  0.03296  1.0000
  I   I334      1.0  0.12808  0.99702  0.93291  1.0000
  I   I335      1.0  0.61184  0.00381  0.08926  1.0000
  I   I336      1.0  0.93523  0.29772  0.70575  1.0000
  I   I337      1.0  0.87013  0.91785  0.92673  1.0000
  I   I338      1.0  0.16131  0.13631  0.48717  1.0000
  I   I339      1.0  0.40051  0.71441  0.58262  1.0000
  I   I340      1.0  0.21090  0.10810  0.07634  1.0000
  I   I341      1.0  0.20789  0.04076  0.65496  1.0000
  I   I342      1.0  0.61796  0.00153  0.51579  1.0000
  I   I343      1.0  0.59908  0.72011  0.07662  1.0000
  I   I344      1.0  0.50505  0.95698  0.23231  1.0000
  I   I345      1.0  0.25993  0.35146  0.63766  1.0000
  I   I346      1.0  0.12878  0.30275  0.47045  1.0000
  I   I347      1.0  0.43567  0.50664  0.01556  1.0000
  I   I348      1.0  0.96191  0.11125  0.59657  1.0000
  I   I349      1.0  0.77176  0.72411  0.99922  1.0000
  I   I350      1.0  0.89486  0.79387  0.51043  1.0000
  I   I351      1.0  0.04361  0.30859  0.93565  1.0000
  I   I352      1.0  0.24185  0.22859  0.01604  1.0000
  I   I353      1.0  0.20508  0.74072  0.79152  1.0000
  I   I354      1.0  0.53373  0.38553  0.72426  1.0000
  I   I355      1.0  0.99936  0.97723  0.97513  1.0000
  I   I356      1.0  0.61804  0.11854  0.22137  1.0000
  I   I357      1.0  0.72067  0.93098  0.15046  1.0000
  I   I358      1.0  0.72731  0.26528  0.67153  1.0000
  I   I359      1.0  0.89761  0.83850  0.31100  1.0000
  I   I360      1.0  0.19560  0.92750  0.74893  1.0000
  I   I361      1.0  0.52401  0.45602  0.33242  1.0000
  I   I362      1.0  0.68292  0.52788  0.35135  1.0000
  I   I363      1.0  0.75848  0.98467  0.99949  1.0000
  I   I364      1.0  0.44055  0.87128  0.68767  1.0000
  I   I365      1.0  0.83332  0.54966  0.64801  1.0000
  I   I366      1.0  0.37468  0.75212  0.69295  1.0000
  I   I367      1.0  0.35136  0.60076  0.64151  1.0000
  I   I368      1.0  0.16888  0.09151  0.07129  1.0000
  I   I369      1.0  0.66361  0.73046  0.89803  1.0000
  I   I370      1.0  0.64754  0.57165  0.73538  1.0000
  I   I371      1.0  0.06335  0.42267  0.80075  1.0000
  I   I372      1.0  0.66968  0.26852  0.65069  1.0000
  I   I373      1.0  0.83262  0.75871  0.76413  1.0000
  I   I374      1.0  0.32600  0.23794  0.74793  1.0000
  I   I375      1.0  0.34763  0.15662  0.20291  1.0000
  I   I376      1.0  0.76070  0.73642  0.11548  1.0000
  I   I377      1.0  0.34098  0.46362  0.10633  1.0000
  I   I378      1.0  0.00915  0.45839  0.12843  1.0000
  I   I379      1.0  0.25679  0.75519  0.22062  1.0000
  I   I380      1.0  0.78248  0.95830  0.73185  1.0000
  I   I381      1.0  0.94610  0.05883  0.78312  1.0000
  I   I382      1.0  0.05827  0.06227  0.02271  1.0000
  I   I383      1.0  0.90726  0.46031  0.84954  1.0000
  I   I384      1.0  0.16737  0.92900  0.83735  1.0000
