data_image0
_chemical_formula_structural       Ti96I384
_chemical_formula_sum              "Ti96 I384"
_cell_length_a       56.0494
_cell_length_b       56.4381
_cell_length_c       27.2823
_cell_angle_alpha    88.7757
_cell_angle_beta     88.7757
_cell_angle_gamma    62.1586

_space_group_name_H-M_alt    "P 1"
_space_group_IT_number       1

loop_
  _space_group_symop_operation_xyz
  'x, y, z'

loop_
  _atom_site_type_symbol
  _atom_site_label
  _atom_site_symmetry_multiplicity
  _atom_site_fract_x
  _atom_site_fract_y
  _atom_site_fract_z
  _atom_site_occupancy
  Ti  Ti1       1.0  0.90755  0.66519  0.06705  1.0000
  Ti  Ti2       1.0  0.88046  0.95700  0.10384  1.0000
  Ti  Ti3       1.0  0.94139  0.61109  0.41190  1.0000
  Ti  Ti4       1.0  0.30031  0.10751  0.42263  1.0000
  Ti  Ti5       1.0  0.96654  0.18288  0.09350  1.0000
  Ti  Ti6       1.0  0.10913  0.17130  0.39643  1.0000
  Ti  Ti7       1.0  0.95957  0.86523  0.50667  1.0000
  Ti  Ti8       1.0  0.02326  0.01218  0.53729  1.0000
  Ti  Ti9       1.0  0.77917  0.00891  0.78035  1.0000
  Ti  Ti10      1.0  0.37928  0.91146  0.14168  1.0000
  Ti  Ti11      1.0  0.29329  0.59601  0.75917  1.0000
  Ti  Ti12      1.0  0.82903  0.77248  0.81981  1.0000
  Ti  Ti13      1.0  0.43386  0.30975  0.61234  1.0000
  Ti  Ti14      1.0  0.25086  0.35748  0.40309  1.0000
  Ti  Ti15      1.0  0.27267  0.05497  0.01072  1.0000
  Ti  Ti16      1.0  0.18838  0.74931  0.28207  1.0000
  Ti  Ti17      1.0  0.23568  0.64171  0.09838  1.0000
  Ti  Ti18      1.0  0.09077  0.35932  0.13409  1.0000
  Ti  Ti19      1.0  0.64841  0.65444  0.37863  1.0000
  Ti  Ti20      1.0  0.72927  0.81715  0.11736  1.0000
  Ti  Ti21      1.0  0.25407  0.48366  0.07334  1.0000
  Ti  Ti22      1.0  0.49601  0.04619  0.51918  1.0000
  Ti  Ti23      1.0  0.58963  0.89584  0.87384  1.0000
  Ti  Ti24      1.0  0.54281  0.89836  0.52153  1.0000
  Ti  Ti25      1.0  0.27993  0.20417  0.82846  1.0000
  Ti  Ti26      1.0  0.22326  0.32002  0.68202  1.0000
  Ti  Ti27      1.0  0.26721  0.50072  0.43716  1.0000
  Ti  Ti28      1.0  0.52920  0.55168  0.56887  1.0000
  Ti  Ti29      1.0  0.74173  0.41917  0.50615  1.0000
  Ti  Ti30      1.0  0.82186  0.47966  0.60016  1.0000
  Ti  Ti31      1.0  0.59611  0.50307  0.10080  1.0000
  Ti  Ti32      1.0  0.84180  0.16533  0.41147  1.0000
  Ti  Ti33      1.0  0.90487  0.38037  0.99383  1.0000
  Ti  Ti34      1.0  0.01559  0.74250  0.29622  1.0000
  Ti  Ti35      1.0  0.71135  0.54267  0.87736  1.0000
  Ti  Ti36      1.0  0.14161  0.50938  0.81219  1.0000
  Ti  Ti37      1.0  0.69969  0.26928  0.15711  1.0000
  Ti  Ti38      1.0  0.52674  0.34382  0.32070  1.0000
  Ti  Ti39      1.0  0.38846  0.64332  0.19571  1.0000
  Ti  Ti40      1.0  0.27565  0.94734  0.78258  1.0000
  Ti  Ti41      1.0  0.61947  0.37019  0.74876  1.0000
  Ti  Ti42      1.0  0.47736  0.74811  0.06080  1.0000
  Ti  Ti43      1.0  0.85632  0.15906  0.91652  1.0000
  Ti  Ti44      1.0  0.89069  0.50133  0.27606  1.0000
  Ti  Ti45      1.0  0.03130  0.49198  0.39293  1.0000
  Ti  Ti46      1.0  0.56475  0.14856  0.50152  1.0000
  Ti  Ti47      1.0  0.45191  0.19453  0.28389  1.0000
  Ti  Ti48      1.0  0.49726  0.30632  0.91147  1.0000
  Ti  Ti49      1.0  0.90058  0.60895  0.13135  1.0000
  Ti  Ti50      1.0  0.79387  0.00443  0.10943  1.0000
  Ti  Ti51      1.0  0.88824  0.02256  0.12099  1.0000
  Ti  Ti52      1.0  0.30637  0.07397  0.54712  1.0000
  Ti  Ti53      1.0  0.00851  0.12912  0.98125  1.0000
  Ti  Ti54      1.0  0.09644  0.15242  0.52609  1.0000
  Ti  Ti55      1.0  0.99411  0.83161  0.62829  1.0000
  Ti  Ti56      1.0  0.02782  0.99154  0.65217  1.0000
  Ti  Ti57      1.0  0.74781  0.02281  0.66359  1.0000
  Ti  Ti58      1.0  0.18514  0.90853  0.21036  1.0000
  Ti  Ti59      1.0  0.43199  0.91494  0.18359  1.0000
  Ti  Ti60      1.0  0.88385  0.73437  0.68181  1.0000
  Ti  Ti61      1.0  0.25791  0.10554  0.06494  1.0000
  Ti  Ti62      1.0  0.42661  0.27602  0.68479  1.0000
  Ti  Ti63      1.0  0.29622  0.29571  0.32344  1.0000
  Ti  Ti64      1.0  0.14993  0.34085  0.11301  1.0000
  Ti  Ti65      1.0  0.21861  0.69446  0.19698  1.0000
  Ti  Ti66      1.0  0.25484  0.77198  0.68762  1.0000
  Ti  Ti67      1.0  0.66488  0.68169  0.48370  1.0000
  Ti  Ti68      1.0  0.75400  0.84514  0.22269  1.0000
  Ti  Ti69      1.0  0.29829  0.43599  0.99768  1.0000
  Ti  Ti70      1.0  0.54296  0.96340  0.45156  1.0000
  Ti  Ti71      1.0  0.63957  0.89489  0.78487  1.0000
  Ti  Ti72      1.0  0.52129  0.97678  0.88875  1.0000
  Ti  Ti73      1.0  0.21925  0.53515  0.36024  1.0000
  Ti  Ti74      1.0  0.27825  0.23553  0.68169  1.0000
  Ti  Ti75      1.0  0.15859  0.37775  0.62178  1.0000
  Ti  Ti76      1.0  0.86965  0.49151  0.68440  1.0000
  Ti  Ti77      1.0  0.44999  0.56968  0.60863  1.0000
  Ti  Ti78      1.0  0.78997  0.42198  0.58249  1.0000
  Ti  Ti79      1.0  0.85798  0.43919  0.93961  1.0000
  Ti  Ti80      1.0  0.60786  0.53481  0.21032  1.0000
  Ti  Ti81      1.0  0.87054  0.12457  0.33082  1.0000
  Ti  Ti82      1.0  0.03063  0.68135  0.16988  1.0000
  Ti  Ti83      1.0  0.71512  0.60666  0.89016  1.0000
  Ti  Ti84      1.0  0.07459  0.54654  0.73669  1.0000
  Ti  Ti85      1.0  0.69871  0.33367  0.13898  1.0000
  Ti  Ti86      1.0  0.56982  0.27762  0.37812  1.0000
  Ti  Ti87      1.0  0.35141  0.71795  0.20593  1.0000
  Ti  Ti88      1.0  0.35023  0.91476  0.72208  1.0000
  Ti  Ti89      1.0  0.56882  0.41102  0.64753  1.0000
  Ti  Ti90      1.0  0.47423  0.68522  0.95593  1.0000
  Ti  Ti91      1.0  0.07050  0.50259  0.25863  1.0000
  Ti  Ti92      1.0  0.79696  0.23028  0.81261  1.0000
  Ti  Ti93      1.0  0.96014  0.45777  0.34592  1.0000
  Ti  Ti94      1.0  0.48875  0.37425  0.92963  1.0000
  Ti  Ti95      1.0  0.57491  0.08754  0.56690  1.0000
  Ti  Ti96      1.0  0.40721  0.19100  0.18234  1.0000
  I   I1        1.0  0.77752  0.03203  0.02749  1.0000
  I   I2        1.0  0.90855  0.91641  0.04905  1.0000
  I   I3        1.0  0.89958  0.61742  0.03805  1.0000
  I   I4        1.0  0.95467  0.17412  0.99882  1.0000
  I   I5        1.0  0.04929  0.15335  0.56099  1.0000
  I   I6        1.0  0.09296  0.20365  0.49792  1.0000
  I   I7        1.0  0.06069  0.94370  0.66622  1.0000
  I   I8        1.0  0.97788  0.03926  0.60131  1.0000
  I   I9        1.0  0.79664  0.02765  0.84975  1.0000
  I   I10       1.0  0.38888  0.94852  0.22939  1.0000
  I   I11       1.0  0.28501  0.62560  0.83703  1.0000
  I   I12       1.0  0.22490  0.86360  0.16671  1.0000
  I   I13       1.0  0.48801  0.28396  0.61665  1.0000
  I   I14       1.0  0.28401  0.28506  0.23277  1.0000
  I   I15       1.0  0.23721  0.04000  0.97994  1.0000
  I   I16       1.0  0.17156  0.74081  0.19175  1.0000
  I   I17       1.0  0.29789  0.77068  0.64867  1.0000
  I   I18       1.0  0.19034  0.31365  0.17844  1.0000
  I   I19       1.0  0.71431  0.87099  0.16085  1.0000
  I   I20       1.0  0.27763  0.50016  0.13410  1.0000
  I   I21       1.0  0.24676  0.44391  0.00983  1.0000
  I   I22       1.0  0.64114  0.89449  0.68888  1.0000
  I   I23       1.0  0.58307  0.93090  0.79109  1.0000
  I   I24       1.0  0.58811  0.91841  0.45223  1.0000
  I   I25       1.0  0.27243  0.19128  0.73495  1.0000
  I   I26       1.0  0.17827  0.32315  0.62446  1.0000
  I   I27       1.0  0.22527  0.52900  0.50117  1.0000
  I   I28       1.0  0.50187  0.55444  0.66294  1.0000
  I   I29       1.0  0.79773  0.37239  0.54595  1.0000
  I   I30       1.0  0.83403  0.47054  0.70386  1.0000
  I   I31       1.0  0.63618  0.45350  0.08216  1.0000
  I   I32       1.0  0.87666  0.07906  0.36892  1.0000
  I   I33       1.0  0.93578  0.33331  0.96297  1.0000
  I   I34       1.0  0.67713  0.53329  0.92714  1.0000
  I   I35       1.0  0.02419  0.58342  0.74087  1.0000
  I   I36       1.0  0.03235  0.69624  0.08134  1.0000
  I   I37       1.0  0.73115  0.28861  0.21120  1.0000
  I   I38       1.0  0.33429  0.74219  0.28735  1.0000
  I   I39       1.0  0.67659  0.36590  0.21961  1.0000
  I   I40       1.0  0.56202  0.39068  0.74950  1.0000
  I   I41       1.0  0.48898  0.63562  0.99013  1.0000
  I   I42       1.0  0.34806  0.87344  0.75517  1.0000
  I   I43       1.0  0.88251  0.17426  0.97668  1.0000
  I   I44       1.0  0.95713  0.43116  0.27162  1.0000
  I   I45       1.0  0.05169  0.44765  0.44443  1.0000
  I   I46       1.0  0.60162  0.14244  0.43903  1.0000
  I   I47       1.0  0.46924  0.16740  0.36290  1.0000
  I   I48       1.0  0.47706  0.40030  0.01328  1.0000
  I   I49       1.0  0.91185  0.66563  0.97722  1.0000
  I   I50       1.0  0.88088  0.92970  0.18629  1.0000
  I   I51       1.0  0.85442  0.06279  0.06198  1.0000
  I   I52       1.0  0.29713  0.11243  0.62152  1.0000
  I   I53       1.0  0.96201  0.23045  0.10020  1.0000
  I   I54       1.0  0.06562  0.15998  0.43439  1.0000
  I   I55       1.0  0.95898  0.90256  0.44672  1.0000
  I   I56       1.0  0.04681  0.02511  0.67116  1.0000
  I   I57       1.0  0.78873  0.03900  0.70210  1.0000
  I   I58       1.0  0.45684  0.86789  0.13178  1.0000
  I   I59       1.0  0.33579  0.95663  0.11894  1.0000
  I   I60       1.0  0.83590  0.78053  0.91511  1.0000
  I   I61       1.0  0.46852  0.23473  0.71957  1.0000
  I   I62       1.0  0.38448  0.27444  0.72466  1.0000
  I   I63       1.0  0.26277  0.38679  0.46688  1.0000
  I   I64       1.0  0.21491  0.73910  0.36743  1.0000
  I   I65       1.0  0.26184  0.64334  0.17812  1.0000
  I   I66       1.0  0.22156  0.81617  0.72641  1.0000
  I   I67       1.0  0.66020  0.72742  0.52399  1.0000
  I   I68       1.0  0.75784  0.76765  0.09970  1.0000
  I   I69       1.0  0.29984  0.43639  0.90277  1.0000
  I   I70       1.0  0.48569  0.01867  0.44972  1.0000
  I   I71       1.0  0.64460  0.88014  0.88870  1.0000
  I   I72       1.0  0.53657  0.01338  0.87320  1.0000
  I   I73       1.0  0.28591  0.45301  0.47404  1.0000
  I   I74       1.0  0.26801  0.28163  0.62021  1.0000
  I   I75       1.0  0.16291  0.39432  0.52814  1.0000
  I   I76       1.0  0.52676  0.59030  0.62031  1.0000
  I   I77       1.0  0.42962  0.60414  0.68320  1.0000
  I   I78       1.0  0.76966  0.47451  0.62225  1.0000
  I   I79       1.0  0.82014  0.45107  0.88038  1.0000
  I   I80       1.0  0.64423  0.52240  0.28258  1.0000
  I   I81       1.0  0.84853  0.13028  0.48444  1.0000
  I   I82       1.0  0.96592  0.76019  0.33709  1.0000
  I   I83       1.0  0.75390  0.51361  0.93021  1.0000
  I   I84       1.0  0.08980  0.57255  0.67164  1.0000
  I   I85       1.0  0.74431  0.33313  0.14321  1.0000
  I   I86       1.0  0.55756  0.23927  0.39161  1.0000
  I   I87       1.0  0.35517  0.63476  0.13918  1.0000
  I   I88       1.0  0.24218  0.92845  0.80479  1.0000
  I   I89       1.0  0.60833  0.35291  0.65763  1.0000
  I   I90       1.0  0.44232  0.75904  0.13396  1.0000
  I   I91       1.0  0.11039  0.47018  0.20040  1.0000
  I   I92       1.0  0.85801  0.19055  0.84506  1.0000
  I   I93       1.0  0.98400  0.50468  0.42324  1.0000
  I   I94       1.0  0.53794  0.36536  0.91527  1.0000
  I   I95       1.0  0.60295  0.04407  0.62157  1.0000
  I   I96       1.0  0.46163  0.15557  0.21435  1.0000
  I   I97       1.0  0.98505  0.58905  0.36986  1.0000
  I   I98       1.0  0.88544  0.71957  0.07257  1.0000
  I   I99       1.0  0.92635  0.95114  0.14660  1.0000
  I   I100      1.0  0.26199  0.11719  0.49341  1.0000
  I   I101      1.0  0.33550  0.08491  0.35452  1.0000
  I   I102      1.0  0.01297  0.16983  0.02528  1.0000
  I   I103      1.0  0.95244  0.83869  0.68676  1.0000
  I   I104      1.0  0.95761  0.84274  0.41727  1.0000
  I   I105      1.0  0.79391  0.98570  0.62919  1.0000
  I   I106      1.0  0.80318  0.82057  0.79328  1.0000
  I   I107      1.0  0.40251  0.94019  0.08933  1.0000
  I   I108      1.0  0.87933  0.73420  0.79645  1.0000
  I   I109      1.0  0.30622  0.08177  0.00738  1.0000
  I   I110      1.0  0.43252  0.25298  0.59263  1.0000
  I   I111      1.0  0.19942  0.38838  0.40474  1.0000
  I   I112      1.0  0.10736  0.36516  0.04401  1.0000
  I   I113      1.0  0.24676  0.71946  0.24662  1.0000
  I   I114      1.0  0.28117  0.61742  0.04610  1.0000
  I   I115      1.0  0.61422  0.69437  0.49901  1.0000
  I   I116      1.0  0.70349  0.65169  0.55040  1.0000
  I   I117      1.0  0.73114  0.80631  0.21363  1.0000
  I   I118      1.0  0.55684  0.98376  0.37831  1.0000
  I   I119      1.0  0.48298  0.08569  0.45742  1.0000
  I   I120      1.0  0.58047  0.94230  0.92441  1.0000
  I   I121      1.0  0.31464  0.50024  0.46996  1.0000
  I   I122      1.0  0.32118  0.20839  0.75004  1.0000
  I   I123      1.0  0.21923  0.35837  0.62452  1.0000
  I   I124      1.0  0.79488  0.53048  0.63277  1.0000
  I   I125      1.0  0.40406  0.58531  0.57108  1.0000
  I   I126      1.0  0.78175  0.44093  0.49194  1.0000
  I   I127      1.0  0.92091  0.41825  0.01348  1.0000
  I   I128      1.0  0.56419  0.53810  0.16904  1.0000
  I   I129      1.0  0.79719  0.17340  0.36647  1.0000
  I   I130      1.0  0.18316  0.46271  0.80485  1.0000
  I   I131      1.0  0.98668  0.72888  0.21334  1.0000
  I   I132      1.0  0.68566  0.65534  0.85859  1.0000
  I   I133      1.0  0.40118  0.67830  0.24762  1.0000
  I   I134      1.0  0.62464  0.25256  0.36960  1.0000
  I   I135      1.0  0.49074  0.36106  0.25838  1.0000
  I   I136      1.0  0.45848  0.79253  0.01670  1.0000
  I   I137      1.0  0.36849  0.89165  0.63627  1.0000
  I   I138      1.0  0.62028  0.38934  0.83041  1.0000
  I   I139      1.0  0.04610  0.51911  0.43908  1.0000
  I   I140      1.0  0.80789  0.20395  0.73266  1.0000
  I   I141      1.0  0.94176  0.50707  0.27903  1.0000
  I   I142      1.0  0.48884  0.26748  0.96409  1.0000
  I   I143      1.0  0.52722  0.12848  0.52596  1.0000
  I   I144      1.0  0.37174  0.17423  0.17549  1.0000
  I   I145      1.0  0.85167  0.61630  0.14790  1.0000
  I   I146      1.0  0.83568  0.95883  0.05073  1.0000
  I   I147      1.0  0.92736  0.65642  0.36430  1.0000
  I   I148      1.0  0.34826  0.03379  0.59487  1.0000
  I   I149      1.0  0.01877  0.13199  0.88632  1.0000
  I   I150      1.0  0.11658  0.12930  0.33779  1.0000
  I   I151      1.0  0.01909  0.78040  0.65308  1.0000
  I   I152      1.0  0.02125  0.00478  0.43999  1.0000
  I   I153      1.0  0.75502  0.97963  0.72966  1.0000
  I   I154      1.0  0.19717  0.89375  0.29931  1.0000
  I   I155      1.0  0.26423  0.58048  0.70767  1.0000
  I   I156      1.0  0.82761  0.76192  0.71111  1.0000
  I   I157      1.0  0.22488  0.15808  0.03854  1.0000
  I   I158      1.0  0.23403  0.33386  0.32256  1.0000
  I   I159      1.0  0.25313  0.09733  0.93852  1.0000
  I   I160      1.0  0.06372  0.33374  0.10338  1.0000
  I   I161      1.0  0.23229  0.70029  0.10062  1.0000
  I   I162      1.0  0.04726  0.40352  0.14867  1.0000
  I   I163      1.0  0.67374  0.62831  0.45438  1.0000
  I   I164      1.0  0.76298  0.82839  0.06832  1.0000
  I   I165      1.0  0.28440  0.43111  0.11349  1.0000
  I   I166      1.0  0.54331  0.99747  0.52422  1.0000
  I   I167      1.0  0.61415  0.86125  0.79684  1.0000
  I   I168      1.0  0.50334  0.89462  0.57074  1.0000
  I   I169      1.0  0.29372  0.23052  0.89050  1.0000
  I   I170      1.0  0.24429  0.27248  0.75590  1.0000
  I   I171      1.0  0.27873  0.49094  0.34138  1.0000
  I   I172      1.0  0.92181  0.45359  0.70055  1.0000
  I   I173      1.0  0.75679  0.39161  0.42269  1.0000
  I   I174      1.0  0.83645  0.42709  0.57288  1.0000
  I   I175      1.0  0.64135  0.52858  0.13244  1.0000
  I   I176      1.0  0.85681  0.12545  0.24391  1.0000
  I   I177      1.0  0.85832  0.38610  0.95028  1.0000
  I   I178      1.0  0.05585  0.71120  0.22309  1.0000
  I   I179      1.0  0.67678  0.59267  0.83445  1.0000
  I   I180      1.0  0.15898  0.53430  0.75360  1.0000
  I   I181      1.0  0.65637  0.31960  0.16318  1.0000
  I   I182      1.0  0.51102  0.30804  0.37807  1.0000
  I   I183      1.0  0.43802  0.60161  0.17838  1.0000
  I   I184      1.0  0.23977  0.99366  0.78166  1.0000
  I   I185      1.0  0.66558  0.32940  0.73222  1.0000
  I   I186      1.0  0.48730  0.69895  0.86621  1.0000
  I   I187      1.0  0.74203  0.25458  0.82278  1.0000
  I   I188      1.0  0.90056  0.49954  0.17771  1.0000
  I   I189      1.0  0.00895  0.45571  0.33491  1.0000
  I   I190      1.0  0.55551  0.18203  0.56966  1.0000
  I   I191      1.0  0.42807  0.24211  0.32614  1.0000
  I   I192      1.0  0.50266  0.32509  0.99645  1.0000
  I   I193      1.0  0.95843  0.64446  0.09790  1.0000
  I   I194      1.0  0.83726  0.01011  0.13324  1.0000
  I   I195      1.0  0.90861  0.59202  0.39825  1.0000
  I   I196      1.0  0.27649  0.15037  0.37261  1.0000
  I   I197      1.0  0.99060  0.13255  0.12746  1.0000
  I   I198      1.0  0.08661  0.21044  0.34078  1.0000
  I   I199      1.0  0.90684  0.87624  0.53505  1.0000
  I   I200      1.0  0.99598  0.99320  0.72267  1.0000
  I   I201      1.0  0.82695  0.96275  0.79129  1.0000
  I   I202      1.0  0.38971  0.87375  0.07779  1.0000
  I   I203      1.0  0.32362  0.60888  0.70217  1.0000
  I   I204      1.0  0.86577  0.76246  0.60264  1.0000
  I   I205      1.0  0.41888  0.33257  0.53162  1.0000
  I   I206      1.0  0.25851  0.31816  0.46342  1.0000
  I   I207      1.0  0.21360  0.09508  0.07385  1.0000
  I   I208      1.0  0.18738  0.79797  0.25819  1.0000
  I   I209      1.0  0.20473  0.67388  0.02430  1.0000
  I   I210      1.0  0.08602  0.35083  0.23190  1.0000
  I   I211      1.0  0.61520  0.70175  0.33896  1.0000
  I   I212      1.0  0.69191  0.83602  0.04657  1.0000
  I   I213      1.0  0.32769  0.46247  0.99943  1.0000
  I   I214      1.0  0.51563  0.05983  0.59354  1.0000
  I   I215      1.0  0.58908  0.86014  0.93991  1.0000
  I   I216      1.0  0.55642  0.85765  0.46638  1.0000
  I   I217      1.0  0.23160  0.21911  0.85277  1.0000
  I   I218      1.0  0.25737  0.32812  0.73514  1.0000
  I   I219      1.0  0.24807  0.55979  0.38789  1.0000
  I   I220      1.0  0.56537  0.51128  0.61333  1.0000
  I   I221      1.0  0.71110  0.39293  0.52846  1.0000
  I   I222      1.0  0.80818  0.49008  0.50640  1.0000
  I   I223      1.0  0.58648  0.53063  0.02178  1.0000
  I   I224      1.0  0.82774  0.20408  0.47637  1.0000
  I   I225      1.0  0.90372  0.37638  0.09267  1.0000
  I   I226      1.0  0.01263  0.78310  0.25124  1.0000
  I   I227      1.0  0.71130  0.52690  0.78874  1.0000
  I   I228      1.0  0.11909  0.49057  0.74524  1.0000
  I   I229      1.0  0.70925  0.23702  0.23575  1.0000
  I   I230      1.0  0.50357  0.38526  0.37157  1.0000
  I   I231      1.0  0.35651  0.75953  0.17173  1.0000
  I   I232      1.0  0.29070  0.93165  0.68388  1.0000
  I   I233      1.0  0.54922  0.45677  0.68954  1.0000
  I   I234      1.0  0.42912  0.68572  0.92871  1.0000
  I   I235      1.0  0.83217  0.13943  0.97884  1.0000
  I   I236      1.0  0.87126  0.46784  0.25827  1.0000
  I   I237      1.0  0.01745  0.52134  0.30111  1.0000
  I   I238      1.0  0.52934  0.18666  0.44407  1.0000
  I   I239      1.0  0.49278  0.20267  0.25214  1.0000
  I   I240      1.0  0.54581  0.26935  0.88852  1.0000
  I   I241      1.0  0.86566  0.67410  0.14068  1.0000
  I   I242      1.0  0.89388  0.99119  0.03165  1.0000
  I   I243      1.0  0.94007  0.62914  0.49492  1.0000
  I   I244      1.0  0.33529  0.10919  0.48100  1.0000
  I   I245      1.0  0.05524  0.09365  0.99638  1.0000
  I   I246      1.0  0.15489  0.17001  0.39564  1.0000
  I   I247      1.0  0.01048  0.83320  0.52666  1.0000
  I   I248      1.0  0.07252  0.97793  0.56799  1.0000
  I   I249      1.0  0.73999  0.02368  0.84755  1.0000
  I   I250      1.0  0.36680  0.89380  0.22834  1.0000
  I   I251      1.0  0.32285  0.54985  0.80012  1.0000
  I   I252      1.0  0.80383  0.74460  0.84085  1.0000
  I   I253      1.0  0.42370  0.35977  0.64404  1.0000
  I   I254      1.0  0.34569  0.28559  0.29968  1.0000
  I   I255      1.0  0.27180  0.12471  0.13542  1.0000
  I   I256      1.0  0.13739  0.76862  0.31578  1.0000
  I   I257      1.0  0.21768  0.60537  0.10932  1.0000
  I   I258      1.0  0.18914  0.33211  0.05133  1.0000
  I   I259      1.0  0.67956  0.62657  0.30431  1.0000
  I   I260      1.0  0.78048  0.87101  0.18235  1.0000
  I   I261      1.0  0.20597  0.50126  0.10308  1.0000
  I   I262      1.0  0.44735  0.06351  0.55617  1.0000
  I   I263      1.0  0.52664  0.92800  0.87845  1.0000
  I   I264      1.0  0.58580  0.87260  0.58144  1.0000
  I   I265      1.0  0.30442  0.15533  0.86002  1.0000
  I   I266      1.0  0.17731  0.35478  0.73378  1.0000
  I   I267      1.0  0.22042  0.49245  0.40015  1.0000
  I   I268      1.0  0.47628  0.56775  0.52649  1.0000
  I   I269      1.0  0.69929  0.46601  0.50507  1.0000
  I   I270      1.0  0.87289  0.47263  0.58747  1.0000
  I   I271      1.0  0.56428  0.48243  0.10648  1.0000
  I   I272      1.0  0.90245  0.13532  0.41974  1.0000
  I   I273      1.0  0.90266  0.40115  0.88813  1.0000
  I   I274      1.0  0.04451  0.72824  0.37414  1.0000
  I   I275      1.0  0.75073  0.57360  0.82574  1.0000
  I   I276      1.0  0.13852  0.52923  0.90407  1.0000
  I   I277      1.0  0.68040  0.24558  0.09957  1.0000
  I   I278      1.0  0.56002  0.28716  0.28368  1.0000
  I   I279      1.0  0.38113  0.68301  0.13037  1.0000
  I   I280      1.0  0.31152  0.96894  0.75574  1.0000
  I   I281      1.0  0.53381  0.39998  0.63276  1.0000
  I   I282      1.0  0.51351  0.74358  0.11810  1.0000
  I   I283      1.0  0.88654  0.11462  0.86610  1.0000
  I   I284      1.0  0.84831  0.54488  0.26701  1.0000
  I   I285      1.0  0.08813  0.46708  0.33115  1.0000
  I   I286      1.0  0.61377  0.10303  0.55036  1.0000
  I   I287      1.0  0.40770  0.23929  0.20008  1.0000
  I   I288      1.0  0.50571  0.32212  0.82174  1.0000
  I   I289      1.0  0.92401  0.60906  0.21603  1.0000
  I   I290      1.0  0.77234  0.97208  0.11264  1.0000
  I   I291      1.0  0.92373  0.03704  0.11607  1.0000
  I   I292      1.0  0.31632  0.05231  0.45854  1.0000
  I   I293      1.0  0.99413  0.08824  0.98982  1.0000
  I   I294      1.0  0.11267  0.13573  0.61296  1.0000
  I   I295      1.0  0.02806  0.83796  0.68370  1.0000
  I   I296      1.0  0.00583  0.97500  0.57345  1.0000
  I   I297      1.0  0.73130  0.04213  0.57702  1.0000
  I   I298      1.0  0.13565  0.92556  0.19670  1.0000
  I   I299      1.0  0.46237  0.93707  0.17956  1.0000
  I   I300      1.0  0.88442  0.69500  0.63361  1.0000
  I   I301      1.0  0.31364  0.01498  0.97201  1.0000
  I   I302      1.0  0.38157  0.32124  0.64026  1.0000
  I   I303      1.0  0.28376  0.35427  0.32200  1.0000
  I   I304      1.0  0.13255  0.38283  0.16565  1.0000
  I   I305      1.0  0.19218  0.66652  0.17790  1.0000
  I   I306      1.0  0.26930  0.73577  0.75505  1.0000
  I   I307      1.0  0.61505  0.63740  0.36256  1.0000
  I   I308      1.0  0.79524  0.80267  0.18903  1.0000
  I   I309      1.0  0.33917  0.38684  0.99338  1.0000
  I   I310      1.0  0.52516  0.94860  0.53979  1.0000
  I   I311      1.0  0.65766  0.93128  0.78396  1.0000
  I   I312      1.0  0.49359  0.99404  0.96514  1.0000
  I   I313      1.0  0.16992  0.56684  0.38059  1.0000
  I   I314      1.0  0.24120  0.23369  0.63164  1.0000
  I   I315      1.0  0.14447  0.42941  0.64413  1.0000
  I   I316      1.0  0.86382  0.50936  0.77095  1.0000
  I   I317      1.0  0.46130  0.51941  0.63078  1.0000
  I   I318      1.0  0.82078  0.39548  0.67279  1.0000
  I   I319      1.0  0.83631  0.44288  0.03313  1.0000
  I   I320      1.0  0.58487  0.58722  0.24402  1.0000
  I   I321      1.0  0.86621  0.17686  0.33294  1.0000
  I   I322      1.0  0.07643  0.64480  0.17610  1.0000
  I   I323      1.0  0.75025  0.60790  0.94630  1.0000
  I   I324      1.0  0.06158  0.52290  0.66365  1.0000
  I   I325      1.0  0.68199  0.36780  0.06784  1.0000
  I   I326      1.0  0.56797  0.34860  0.28859  1.0000
  I   I327      1.0  0.31147  0.71198  0.17630  1.0000
  I   I328      1.0  0.39269  0.91203  0.75773  1.0000
  I   I329      1.0  0.62601  0.40502  0.68226  1.0000
  I   I330      1.0  0.51556  0.70069  1.00000  1.0000
  I   I331      1.0  0.08870  0.53568  0.29033  1.0000
  I   I332      1.0  0.80214  0.19095  0.87966  1.0000
  I   I333      1.0  0.96672  0.42891  0.42167  1.0000
  I   I334      1.0  0.46323  0.41817  0.87321  1.0000
  I   I335      1.0  0.57058  0.06473  0.48696  1.0000
  I   I336      1.0  0.40297  0.18696  0.28300  1.0000
  I   I337      1.0  0.93857  0.55972  0.13476  1.0000
  I   I338      1.0  0.76022  0.03865  0.16648  1.0000
  I   I339      1.0  0.88490  0.02258  0.21571  1.0000
  I   I340      1.0  0.27706  0.05840  0.59389  1.0000
  I   I341      1.0  0.91916  0.19048  0.12593  1.0000
  I   I342      1.0  0.12305  0.10617  0.48607  1.0000
  I   I343      1.0  0.96542  0.89077  0.59321  1.0000
  I   I344      1.0  0.03429  0.05060  0.52272  1.0000
  I   I345      1.0  0.70938  0.05877  0.71249  1.0000
  I   I346      1.0  0.20350  0.94103  0.17384  1.0000
  I   I347      1.0  0.44166  0.88320  0.26442  1.0000
  I   I348      1.0  0.93600  0.72159  0.67288  1.0000
  I   I349      1.0  0.27331  0.05405  0.11550  1.0000
  I   I350      1.0  0.43660  0.30719  0.75201  1.0000
  I   I351      1.0  0.29913  0.25931  0.38277  1.0000
  I   I352      1.0  0.12981  0.30012  0.10781  1.0000
  I   I353      1.0  0.20266  0.69323  0.29758  1.0000
  I   I354      1.0  0.22959  0.76450  0.61607  1.0000
  I   I355      1.0  0.67755  0.68796  0.39469  1.0000
  I   I356      1.0  0.74883  0.86311  0.31113  1.0000
  I   I357      1.0  0.24840  0.51144  0.98345  1.0000
  I   I358      1.0  0.51639  0.94431  0.39561  1.0000
  I   I359      1.0  0.69205  0.85583  0.78190  1.0000
  I   I360      1.0  0.47844  0.99298  0.83472  1.0000
  I   I361      1.0  0.21517  0.55590  0.27312  1.0000
  I   I362      1.0  0.31442  0.19899  0.62022  1.0000
  I   I363      1.0  0.11394  0.37694  0.63638  1.0000
  I   I364      1.0  0.86125  0.53634  0.63236  1.0000
  I   I365      1.0  0.56133  0.54830  0.49324  1.0000
  I   I366      1.0  0.73900  0.42635  0.60672  1.0000
  I   I367      1.0  0.87478  0.47342  0.92225  1.0000
  I   I368      1.0  0.61961  0.48270  0.20185  1.0000
  I   I369      1.0  0.91922  0.11397  0.29475  1.0000
  I   I370      1.0  0.00440  0.65383  0.18205  1.0000
  I   I371      1.0  0.69299  0.58809  0.96358  1.0000
  I   I372      1.0  0.08235  0.53501  0.83522  1.0000
  I   I373      1.0  0.73249  0.25488  0.07463  1.0000
  I   I374      1.0  0.56187  0.31214  0.44272  1.0000
  I   I375      1.0  0.37261  0.62651  0.27712  1.0000
  I   I376      1.0  0.29085  0.94615  0.87399  1.0000
  I   I377      1.0  0.58014  0.41697  0.55220  1.0000
  I   I378      1.0  0.44561  0.72258  0.02325  1.0000
  I   I379      1.0  0.03992  0.52317  0.17875  1.0000
  I   I380      1.0  0.81174  0.26887  0.81775  1.0000
  I   I381      1.0  0.90073  0.49548  0.37136  1.0000
  I   I382      1.0  0.44780  0.35299  0.90364  1.0000
  I   I383      1.0  0.55057  0.12132  0.64506  1.0000
  I   I384      1.0  0.42512  0.18043  0.09465  1.0000
