data_image0
_chemical_formula_structural       Ti96I384
_chemical_formula_sum              "Ti96 I384"
_cell_length_a       44.6538
_cell_length_b       44.4086
_cell_length_c       22.6622
_cell_angle_alpha    88.7757
_cell_angle_beta     88.7757
_cell_angle_gamma    62.1586

_space_group_name_H-M_alt    "P 1"
_space_group_IT_number       1

loop_
  _space_group_symop_operation_xyz
  'x, y, z'

loop_
  _atom_site_type_symbol
  _atom_site_label
  _atom_site_symmetry_multiplicity
  _atom_site_fract_x
  _atom_site_fract_y
  _atom_site_fract_z
  _atom_site_occupancy
  Ti  Ti1       1.0  0.35730  0.06347  0.80165  1.0000
  Ti  Ti2       1.0  0.21894  0.99762  0.23131  1.0000
  Ti  Ti3       1.0  0.33546  0.04266  0.44825  1.0000
  Ti  Ti4       1.0  0.20060  0.30928  0.22244  1.0000
  Ti  Ti5       1.0  0.19630  0.32737  0.54776  1.0000
  Ti  Ti6       1.0  0.19955  0.33513  0.88071  1.0000
  Ti  Ti7       1.0  0.10355  0.56169  0.45171  1.0000
  Ti  Ti8       1.0  0.94290  0.73534  0.94039  1.0000
  Ti  Ti9       1.0  0.02227  0.67613  0.18385  1.0000
  Ti  Ti10      1.0  0.03228  0.91445  0.30431  1.0000
  Ti  Ti11      1.0  0.11285  0.83858  0.65294  1.0000
  Ti  Ti12      1.0  0.10329  0.87920  0.96420  1.0000
  Ti  Ti13      1.0  0.49187  0.10184  0.26982  1.0000
  Ti  Ti14      1.0  0.50254  0.10002  0.60505  1.0000
  Ti  Ti15      1.0  0.49224  0.12726  0.92499  1.0000
  Ti  Ti16      1.0  0.32905  0.39934  0.68215  1.0000
  Ti  Ti17      1.0  0.29144  0.46420  0.98050  1.0000
  Ti  Ti18      1.0  0.33300  0.39945  0.33879  1.0000
  Ti  Ti19      1.0  0.34424  0.83601  0.39109  1.0000
  Ti  Ti20      1.0  0.41206  0.63763  0.89599  1.0000
  Ti  Ti21      1.0  0.28221  0.71056  0.33946  1.0000
  Ti  Ti22      1.0  0.23440  0.93587  0.73869  1.0000
  Ti  Ti23      1.0  0.45104  0.85900  0.12040  1.0000
  Ti  Ti24      1.0  0.42367  0.89994  0.65546  1.0000
  Ti  Ti25      1.0  0.66016  0.16758  0.48054  1.0000
  Ti  Ti26      1.0  0.66687  0.17973  0.83960  1.0000
  Ti  Ti27      1.0  0.65393  0.18427  0.15636  1.0000
  Ti  Ti28      1.0  0.59816  0.40210  0.13923  1.0000
  Ti  Ti29      1.0  0.64539  0.36180  0.51020  1.0000
  Ti  Ti30      1.0  0.63515  0.38307  0.82296  1.0000
  Ti  Ti31      1.0  0.59159  0.62613  0.19675  1.0000
  Ti  Ti32      1.0  0.69399  0.53557  0.56536  1.0000
  Ti  Ti33      1.0  0.69130  0.52905  0.92371  1.0000
  Ti  Ti34      1.0  0.69959  0.76910  0.23792  1.0000
  Ti  Ti35      1.0  0.71193  0.73659  0.56571  1.0000
  Ti  Ti36      1.0  0.70390  0.74119  0.92940  1.0000
  Ti  Ti37      1.0  0.87277  0.11904  0.18464  1.0000
  Ti  Ti38      1.0  0.86041  0.13275  0.51263  1.0000
  Ti  Ti39      1.0  0.86654  0.12274  0.81746  1.0000
  Ti  Ti40      1.0  0.99254  0.25366  0.04795  1.0000
  Ti  Ti41      1.0  0.04220  0.21342  0.35782  1.0000
  Ti  Ti42      1.0  0.06166  0.14439  0.60785  1.0000
  Ti  Ti43      1.0  0.97085  0.47587  0.27030  1.0000
  Ti  Ti44      1.0  0.94269  0.48611  0.60492  1.0000
  Ti  Ti45      1.0  0.95762  0.53186  0.92799  1.0000
  Ti  Ti46      1.0  0.75228  0.93103  0.19815  1.0000
  Ti  Ti47      1.0  0.77772  0.93116  0.55131  1.0000
  Ti  Ti48      1.0  0.75465  0.94478  0.88505  1.0000
  Ti  Ti49      1.0  0.31451  0.09276  0.63731  1.0000
  Ti  Ti50      1.0  0.14988  0.01744  0.11329  1.0000
  Ti  Ti51      1.0  0.23784  0.05661  0.37334  1.0000
  Ti  Ti52      1.0  0.15029  0.36620  0.06060  1.0000
  Ti  Ti53      1.0  0.14457  0.37737  0.37373  1.0000
  Ti  Ti54      1.0  0.14533  0.37285  0.71401  1.0000
  Ti  Ti55      1.0  0.07107  0.65305  0.36157  1.0000
  Ti  Ti56      1.0  0.93873  0.76379  0.78123  1.0000
  Ti  Ti57      1.0  0.93207  0.76332  0.12948  1.0000
  Ti  Ti58      1.0  0.02398  0.91153  0.09715  1.0000
  Ti  Ti59      1.0  0.92989  0.93414  0.32247  1.0000
  Ti  Ti60      1.0  0.05713  0.86186  0.79400  1.0000
  Ti  Ti61      1.0  0.43905  0.17226  0.09699  1.0000
  Ti  Ti62      1.0  0.44903  0.15176  0.43373  1.0000
  Ti  Ti63      1.0  0.45057  0.17343  0.75253  1.0000
  Ti  Ti64      1.0  0.30529  0.39887  0.50646  1.0000
  Ti  Ti65      1.0  0.24745  0.48255  0.79219  1.0000
  Ti  Ti66      1.0  0.22171  0.51568  0.12354  1.0000
  Ti  Ti67      1.0  0.30317  0.79281  0.30207  1.0000
  Ti  Ti68      1.0  0.30327  0.67623  0.85677  1.0000
  Ti  Ti69      1.0  0.26515  0.62599  0.31191  1.0000
  Ti  Ti70      1.0  0.32431  0.92043  0.67060  1.0000
  Ti  Ti71      1.0  0.45321  0.82548  0.95019  1.0000
  Ti  Ti72      1.0  0.43830  0.92820  0.24352  1.0000
  Ti  Ti73      1.0  0.58519  0.23483  0.32114  1.0000
  Ti  Ti74      1.0  0.61537  0.20777  0.66438  1.0000
  Ti  Ti75      1.0  0.59336  0.23225  0.00457  1.0000
  Ti  Ti76      1.0  0.55750  0.43045  0.95865  1.0000
  Ti  Ti77      1.0  0.51306  0.46247  0.25727  1.0000
  Ti  Ti78      1.0  0.56384  0.42943  0.64016  1.0000
  Ti  Ti79      1.0  0.59179  0.60029  0.02500  1.0000
  Ti  Ti80      1.0  0.53113  0.68278  0.33126  1.0000
  Ti  Ti81      1.0  0.67111  0.53095  0.73594  1.0000
  Ti  Ti82      1.0  0.63459  0.78381  0.08194  1.0000
  Ti  Ti83      1.0  0.64311  0.78053  0.40752  1.0000
  Ti  Ti84      1.0  0.65285  0.76980  0.74687  1.0000
  Ti  Ti85      1.0  0.86397  0.16825  0.00253  1.0000
  Ti  Ti86      1.0  0.87101  0.17201  0.34857  1.0000
  Ti  Ti87      1.0  0.85792  0.19819  0.67169  1.0000
  Ti  Ti88      1.0  0.96895  0.30473  0.90432  1.0000
  Ti  Ti89      1.0  0.95723  0.29288  0.23152  1.0000
  Ti  Ti90      1.0  0.01487  0.24661  0.56412  1.0000
  Ti  Ti91      1.0  0.88960  0.59408  0.07796  1.0000
  Ti  Ti92      1.0  0.91435  0.53263  0.45014  1.0000
  Ti  Ti93      1.0  0.89184  0.55805  0.75901  1.0000
  Ti  Ti94      1.0  0.68558  0.99244  0.04926  1.0000
  Ti  Ti95      1.0  0.71745  0.96203  0.38298  1.0000
  Ti  Ti96      1.0  0.70630  0.97901  0.71305  1.0000
  I   I1        1.0  0.15236  0.96243  0.06954  1.0000
  I   I2        1.0  0.22022  0.00115  0.35204  1.0000
  I   I3        1.0  0.30830  0.04094  0.57274  1.0000
  I   I4        1.0  0.13339  0.34673  0.26736  1.0000
  I   I5        1.0  0.12776  0.34636  0.61751  1.0000
  I   I6        1.0  0.14080  0.34672  0.95515  1.0000
  I   I7        1.0  0.97211  0.72489  0.69154  1.0000
  I   I8        1.0  0.89826  0.74414  0.03822  1.0000
  I   I9        1.0  0.00897  0.66977  0.30231  1.0000
  I   I10       1.0  0.99380  0.87856  0.28077  1.0000
  I   I11       1.0  0.08897  0.79632  0.73844  1.0000
  I   I12       1.0  0.05501  0.85578  0.03266  1.0000
  I   I13       1.0  0.42671  0.12693  0.35147  1.0000
  I   I14       1.0  0.43460  0.15066  0.65843  1.0000
  I   I15       1.0  0.41519  0.16905  0.98591  1.0000
  I   I16       1.0  0.26163  0.42720  0.72364  1.0000
  I   I17       1.0  0.22974  0.46835  0.03982  1.0000
  I   I18       1.0  0.28919  0.37448  0.40186  1.0000
  I   I19       1.0  0.36519  0.61424  0.85769  1.0000
  I   I20       1.0  0.20489  0.63604  0.29243  1.0000
  I   I21       1.0  0.24985  0.78231  0.35682  1.0000
  I   I22       1.0  0.44671  0.77046  0.97936  1.0000
  I   I23       1.0  0.40515  0.85625  0.05020  1.0000
  I   I24       1.0  0.38685  0.86348  0.67654  1.0000
  I   I25       1.0  0.60330  0.17594  0.56440  1.0000
  I   I26       1.0  0.60374  0.19474  0.90166  1.0000
  I   I27       1.0  0.59112  0.19844  0.22353  1.0000
  I   I28       1.0  0.53223  0.41521  0.15851  1.0000
  I   I29       1.0  0.57762  0.37879  0.55126  1.0000
  I   I30       1.0  0.57107  0.39007  0.86449  1.0000
  I   I31       1.0  0.51621  0.66482  0.18989  1.0000
  I   I32       1.0  0.67234  0.49405  0.63131  1.0000
  I   I33       1.0  0.61878  0.54500  0.94331  1.0000
  I   I34       1.0  0.66133  0.73767  0.31621  1.0000
  I   I35       1.0  0.66203  0.72789  0.65509  1.0000
  I   I36       1.0  0.64673  0.74349  0.98636  1.0000
  I   I37       1.0  0.83070  0.18165  0.24965  1.0000
  I   I38       1.0  0.82116  0.19451  0.57772  1.0000
  I   I39       1.0  0.83316  0.18443  0.89251  1.0000
  I   I40       1.0  0.93614  0.26125  0.14224  1.0000
  I   I41       1.0  0.98621  0.25820  0.44962  1.0000
  I   I42       1.0  0.01824  0.27890  0.83026  1.0000
  I   I43       1.0  0.90288  0.50511  0.31510  1.0000
  I   I44       1.0  0.88127  0.51553  0.68638  1.0000
  I   I45       1.0  0.89556  0.54522  0.99062  1.0000
  I   I46       1.0  0.70974  0.92639  0.29394  1.0000
  I   I47       1.0  0.71884  0.93823  0.61289  1.0000
  I   I48       1.0  0.68526  0.97876  0.93000  1.0000
  I   I49       1.0  0.33208  0.13357  0.69439  1.0000
  I   I50       1.0  0.16139  0.06003  0.19109  1.0000
  I   I51       1.0  0.27407  0.09007  0.36977  1.0000
  I   I52       1.0  0.19357  0.37015  0.14529  1.0000
  I   I53       1.0  0.16406  0.39588  0.47897  1.0000
  I   I54       1.0  0.15195  0.39767  0.81453  1.0000
  I   I55       1.0  0.12890  0.63170  0.42356  1.0000
  I   I56       1.0  0.89267  0.80202  0.91141  1.0000
  I   I57       1.0  0.98514  0.75641  0.20338  1.0000
  I   I58       1.0  0.00577  0.95288  0.20268  1.0000
  I   I59       1.0  0.92097  0.88611  0.37432  1.0000
  I   I60       1.0  0.04326  0.91103  0.87893  1.0000
  I   I61       1.0  0.46111  0.17376  0.21734  1.0000
  I   I62       1.0  0.48747  0.15488  0.52653  1.0000
  I   I63       1.0  0.47668  0.19167  0.85471  1.0000
  I   I64       1.0  0.31112  0.44803  0.58206  1.0000
  I   I65       1.0  0.24924  0.52205  0.87556  1.0000
  I   I66       1.0  0.25362  0.53520  0.19622  1.0000
  I   I67       1.0  0.35297  0.81001  0.26931  1.0000
  I   I68       1.0  0.35067  0.68690  0.93372  1.0000
  I   I69       1.0  0.25798  0.68560  0.25537  1.0000
  I   I70       1.0  0.25967  0.97126  0.64883  1.0000
  I   I71       1.0  0.48676  0.85691  0.00720  1.0000
  I   I72       1.0  0.46927  0.89206  0.34187  1.0000
  I   I73       1.0  0.61210  0.23799  0.43526  1.0000
  I   I74       1.0  0.62420  0.23911  0.76297  1.0000
  I   I75       1.0  0.60924  0.25879  0.09653  1.0000
  I   I76       1.0  0.56677  0.46196  0.06200  1.0000
  I   I77       1.0  0.53170  0.46805  0.36335  1.0000
  I   I78       1.0  0.56928  0.47195  0.70927  1.0000
  I   I79       1.0  0.58393  0.65615  0.08964  1.0000
  I   I80       1.0  0.56163  0.67348  0.42711  1.0000
  I   I81       1.0  0.67060  0.57874  0.83117  1.0000
  I   I82       1.0  0.63625  0.81652  0.18344  1.0000
  I   I83       1.0  0.65442  0.79727  0.51059  1.0000
  I   I84       1.0  0.66925  0.79511  0.85531  1.0000
  I   I85       1.0  0.89340  0.16322  0.11432  1.0000
  I   I86       1.0  0.90852  0.15656  0.45651  1.0000
  I   I87       1.0  0.90613  0.15378  0.75259  1.0000
  I   I88       1.0  0.93054  0.32414  0.01324  1.0000
  I   I89       1.0  0.01220  0.28104  0.30201  1.0000
  I   I90       1.0  0.06179  0.20738  0.64882  1.0000
  I   I91       1.0  0.90789  0.61781  0.16486  1.0000
  I   I92       1.0  0.93576  0.54954  0.54794  1.0000
  I   I93       1.0  0.92111  0.58080  0.84441  1.0000
  I   I94       1.0  0.70562  0.00893  0.15880  1.0000
  I   I95       1.0  0.75131  0.98774  0.46598  1.0000
  I   I96       1.0  0.72560  0.00823  0.80250  1.0000
  I   I97       1.0  0.34129  0.08959  0.51008  1.0000
  I   I98       1.0  0.33252  0.10955  0.88275  1.0000
  I   I99       1.0  0.26629  0.01904  0.22778  1.0000
  I   I100      1.0  0.20447  0.36814  0.98090  1.0000
  I   I101      1.0  0.20580  0.35234  0.30444  1.0000
  I   I102      1.0  0.20641  0.36148  0.65904  1.0000
  I   I103      1.0  0.07822  0.67576  0.24646  1.0000
  I   I104      1.0  0.11185  0.56621  0.56498  1.0000
  I   I105      1.0  0.97129  0.75748  0.01490  1.0000
  I   I106      1.0  0.08508  0.91841  0.06584  1.0000
  I   I107      1.0  0.97456  0.94778  0.38738  1.0000
  I   I108      1.0  0.11585  0.86925  0.76249  1.0000
  I   I109      1.0  0.50136  0.15354  0.03135  1.0000
  I   I110      1.0  0.51508  0.12862  0.35535  1.0000
  I   I111      1.0  0.51666  0.13502  0.69265  1.0000
  I   I112      1.0  0.37057  0.36541  0.45763  1.0000
  I   I113      1.0  0.32432  0.46040  0.74268  1.0000
  I   I114      1.0  0.26400  0.52848  0.03096  1.0000
  I   I115      1.0  0.32675  0.72143  0.28011  1.0000
  I   I116      1.0  0.30804  0.84410  0.49362  1.0000
  I   I117      1.0  0.44202  0.66666  0.93956  1.0000
  I   I118      1.0  0.36360  0.95019  0.70362  1.0000
  I   I119      1.0  0.19165  0.94017  0.65383  1.0000
  I   I120      1.0  0.41214  0.92622  0.13156  1.0000
  I   I121      1.0  0.65792  0.21046  0.26045  1.0000
  I   I122      1.0  0.67743  0.18526  0.59313  1.0000
  I   I123      1.0  0.66247  0.22622  0.92629  1.0000
  I   I124      1.0  0.63541  0.42418  0.91401  1.0000
  I   I125      1.0  0.58153  0.44905  0.22615  1.0000
  I   I126      1.0  0.62302  0.42334  0.58031  1.0000
  I   I127      1.0  0.66607  0.57739  0.02364  1.0000
  I   I128      1.0  0.58442  0.68448  0.26011  1.0000
  I   I129      1.0  0.73137  0.52416  0.69808  1.0000
  I   I130      1.0  0.69079  0.78861  0.02071  1.0000
  I   I131      1.0  0.69901  0.79478  0.34733  1.0000
  I   I132      1.0  0.70602  0.77428  0.66956  1.0000
  I   I133      1.0  0.90238  0.10941  0.93770  1.0000
  I   I134      1.0  0.91159  0.10479  0.29136  1.0000
  I   I135      1.0  0.90247  0.12727  0.61398  1.0000
  I   I136      1.0  0.08677  0.09842  0.52185  1.0000
  I   I137      1.0  0.00542  0.28234  0.14366  1.0000
  I   I138      1.0  0.08510  0.20321  0.44956  1.0000
  I   I139      1.0  0.95312  0.57080  0.02240  1.0000
  I   I140      1.0  0.97711  0.49058  0.39605  1.0000
  I   I141      1.0  0.95394  0.52339  0.69282  1.0000
  I   I142      1.0  0.74893  0.97953  0.98882  1.0000
  I   I143      1.0  0.76390  0.96257  0.29860  1.0000
  I   I144      1.0  0.76715  0.97468  0.64922  1.0000
  I   I145      1.0  0.37643  0.03939  0.68019  1.0000
  I   I146      1.0  0.16956  0.97701  0.24836  1.0000
  I   I147      1.0  0.30277  0.00488  0.39914  1.0000
  I   I148      1.0  0.19051  0.29655  0.11286  1.0000
  I   I149      1.0  0.17935  0.30962  0.44548  1.0000
  I   I150      1.0  0.17675  0.30514  0.80119  1.0000
  I   I151      1.0  0.10421  0.58085  0.33071  1.0000
  I   I152      1.0  0.91947  0.71721  0.85043  1.0000
  I   I153      1.0  0.96282  0.69127  0.15449  1.0000
  I   I154      1.0  0.07155  0.87785  0.20590  1.0000
  I   I155      1.0  0.11745  0.88681  0.58567  1.0000
  I   I156      1.0  0.11372  0.82637  0.90020  1.0000
  I   I157      1.0  0.46301  0.10030  0.13671  1.0000
  I   I158      1.0  0.48076  0.08412  0.48626  1.0000
  I   I159      1.0  0.46752  0.10835  0.81893  1.0000
  I   I160      1.0  0.32596  0.34756  0.59278  1.0000
  I   I161      1.0  0.28309  0.42964  0.88627  1.0000
  I   I162      1.0  0.30751  0.42816  0.23507  1.0000
  I   I163      1.0  0.34949  0.76822  0.39644  1.0000
  I   I164      1.0  0.30955  0.71040  0.77105  1.0000
  I   I165      1.0  0.23124  0.68988  0.39115  1.0000
  I   I166      1.0  0.29277  0.93184  0.80199  1.0000
  I   I167      1.0  0.49587  0.79194  0.12006  1.0000
  I   I168      1.0  0.44756  0.86616  0.55004  1.0000
  I   I169      1.0  0.62967  0.15855  0.37479  1.0000
  I   I170      1.0  0.66193  0.14576  0.75703  1.0000
  I   I171      1.0  0.63980  0.16120  0.05166  1.0000
  I   I172      1.0  0.59357  0.36825  0.02272  1.0000
  I   I173      1.0  0.62526  0.36427  0.39994  1.0000
  I   I174      1.0  0.60944  0.37084  0.72695  1.0000
  I   I175      1.0  0.59891  0.56450  0.14026  1.0000
  I   I176      1.0  0.66870  0.54255  0.45810  1.0000
  I   I177      1.0  0.69935  0.48551  0.81784  1.0000
  I   I178      1.0  0.69060  0.73068  0.15140  1.0000
  I   I179      1.0  0.69587  0.71759  0.46691  1.0000
  I   I180      1.0  0.69976  0.71317  0.82590  1.0000
  I   I181      1.0  0.83472  0.13926  0.07463  1.0000
  I   I182      1.0  0.82390  0.14851  0.41906  1.0000
  I   I183      1.0  0.82765  0.15243  0.72364  1.0000
  I   I184      1.0  0.96972  0.23823  0.95586  1.0000
  I   I185      1.0  0.98497  0.22356  0.28477  1.0000
  I   I186      1.0  0.00171  0.18932  0.55602  1.0000
  I   I187      1.0  0.94916  0.50454  0.16752  1.0000
  I   I188      1.0  0.90650  0.47458  0.53129  1.0000
  I   I189      1.0  0.93490  0.49711  0.83346  1.0000
  I   I190      1.0  0.71327  0.92712  0.10643  1.0000
  I   I191      1.0  0.78136  0.89938  0.45159  1.0000
  I   I192      1.0  0.74523  0.91972  0.78723  1.0000
  I   I193      1.0  0.41877  0.05245  0.82141  1.0000
  I   I194      1.0  0.22296  0.99351  0.10179  1.0000
  I   I195      1.0  0.37033  0.03921  0.35374  1.0000
  I   I196      1.0  0.26857  0.27814  0.22111  1.0000
  I   I197      1.0  0.25353  0.31996  0.51397  1.0000
  I   I198      1.0  0.24565  0.33621  0.80957  1.0000
  I   I199      1.0  0.15955  0.50625  0.42256  1.0000
  I   I200      1.0  0.99120  0.73076  0.85830  1.0000
  I   I201      1.0  0.04516  0.69297  0.09040  1.0000
  I   I202      1.0  0.06267  0.95277  0.32620  1.0000
  I   I203      1.0  0.17076  0.78963  0.63616  1.0000
  I   I204      1.0  0.12482  0.91602  0.90100  1.0000
  I   I205      1.0  0.55239  0.07895  0.22602  1.0000
  I   I206      1.0  0.56538  0.05960  0.59800  1.0000
  I   I207      1.0  0.55516  0.10974  0.90271  1.0000
  I   I208      1.0  0.39458  0.37266  0.65632  1.0000
  I   I209      1.0  0.34811  0.46541  0.95950  1.0000
  I   I210      1.0  0.38531  0.40380  0.31753  1.0000
  I   I211      1.0  0.33386  0.89701  0.36852  1.0000
  I   I212      1.0  0.43895  0.63940  0.78654  1.0000
  I   I213      1.0  0.32246  0.64225  0.37093  1.0000
  I   I214      1.0  0.19539  0.99667  0.77992  1.0000
  I   I215      1.0  0.49436  0.88924  0.16271  1.0000
  I   I216      1.0  0.45564  0.93587  0.63829  1.0000
  I   I217      1.0  0.71145  0.16779  0.42609  1.0000
  I   I218      1.0  0.71736  0.18840  0.79085  1.0000
  I   I219      1.0  0.70664  0.18701  0.12547  1.0000
  I   I220      1.0  0.65910  0.39704  0.12123  1.0000
  I   I221      1.0  0.70468  0.36065  0.49595  1.0000
  I   I222      1.0  0.67145  0.40357  0.76071  1.0000
  I   I223      1.0  0.65676  0.61042  0.21410  1.0000
  I   I224      1.0  0.71707  0.57935  0.54236  1.0000
  I   I225      1.0  0.74607  0.53134  0.92421  1.0000
  I   I226      1.0  0.72200  0.80784  0.18777  1.0000
  I   I227      1.0  0.75647  0.75325  0.52043  1.0000
  I   I228      1.0  0.76493  0.73311  0.90964  1.0000
  I   I229      1.0  0.92524  0.06890  0.13463  1.0000
  I   I230      1.0  0.90424  0.06995  0.48353  1.0000
  I   I231      1.0  0.91704  0.06439  0.78488  1.0000
  I   I232      1.0  0.03479  0.26922  0.98997  1.0000
  I   I233      1.0  0.08978  0.19171  0.28401  1.0000
  I   I234      1.0  0.04483  0.10916  0.68000  1.0000
  I   I235      1.0  0.02797  0.47621  0.23227  1.0000
  I   I236      1.0  0.00275  0.44697  0.56037  1.0000
  I   I237      1.0  0.01595  0.52337  0.88109  1.0000
  I   I238      1.0  0.79884  0.93705  0.13866  1.0000
  I   I239      1.0  0.83701  0.93363  0.54046  1.0000
  I   I240      1.0  0.81460  0.93916  0.84946  1.0000
  I   I241      1.0  0.35780  0.00954  0.85437  1.0000
  I   I242      1.0  0.25555  0.93127  0.21590  1.0000
  I   I243      1.0  0.38576  0.98437  0.49200  1.0000
  I   I244      1.0  0.19388  0.25761  0.28097  1.0000
  I   I245      1.0  0.21393  0.27362  0.61522  1.0000
  I   I246      1.0  0.24439  0.27343  0.93638  1.0000
  I   I247      1.0  0.06596  0.53057  0.44779  1.0000
  I   I248      1.0  0.98693  0.66938  0.96628  1.0000
  I   I249      1.0  0.04888  0.61022  0.17207  1.0000
  I   I250      1.0  0.06735  0.87406  0.38827  1.0000
  I   I251      1.0  0.08006  0.83575  0.56186  1.0000
  I   I252      1.0  0.16014  0.84100  0.02285  1.0000
  I   I253      1.0  0.49546  0.04302  0.29459  1.0000
  I   I254      1.0  0.48848  0.05208  0.63096  1.0000
  I   I255      1.0  0.50339  0.06920  0.96884  1.0000
  I   I256      1.0  0.34048  0.35175  0.76020  1.0000
  I   I257      1.0  0.31876  0.41891  0.06839  1.0000
  I   I258      1.0  0.35716  0.33356  0.31161  1.0000
  I   I259      1.0  0.40828  0.80972  0.42857  1.0000
  I   I260      1.0  0.44793  0.58167  0.96044  1.0000
  I   I261      1.0  0.28237  0.71715  0.45681  1.0000
  I   I262      1.0  0.21116  0.90815  0.81599  1.0000
  I   I263      1.0  0.42390  0.84905  0.22365  1.0000
  I   I264      1.0  0.46947  0.85714  0.72619  1.0000
  I   I265      1.0  0.69968  0.10506  0.50998  1.0000
  I   I266      1.0  0.70149  0.12093  0.89769  1.0000
  I   I267      1.0  0.68510  0.11720  0.16545  1.0000
  I   I268      1.0  0.62619  0.34040  0.18674  1.0000
  I   I269      1.0  0.66837  0.29977  0.56081  1.0000
  I   I270      1.0  0.67801  0.32899  0.87601  1.0000
  I   I271      1.0  0.57634  0.61235  0.31043  1.0000
  I   I272      1.0  0.74990  0.48137  0.54615  1.0000
  I   I273      1.0  0.71368  0.46787  0.97531  1.0000
  I   I274      1.0  0.75824  0.71448  0.26654  1.0000
  I   I275      1.0  0.75225  0.67568  0.59604  1.0000
  I   I276      1.0  0.72614  0.67587  0.98437  1.0000
  I   I277      1.0  0.83626  0.08648  0.19073  1.0000
  I   I278      1.0  0.82210  0.10829  0.56757  1.0000
  I   I279      1.0  0.82010  0.10491  0.85583  1.0000
  I   I280      1.0  0.03127  0.19205  0.08863  1.0000
  I   I281      1.0  0.04120  0.15756  0.38092  1.0000
  I   I282      1.0  0.12717  0.11030  0.64899  1.0000
  I   I283      1.0  0.98687  0.41192  0.25693  1.0000
  I   I284      1.0  0.96033  0.42876  0.67670  1.0000
  I   I285      1.0  0.97862  0.47229  0.98116  1.0000
  I   I286      1.0  0.78813  0.86615  0.21059  1.0000
  I   I287      1.0  0.80717  0.87239  0.61149  1.0000
  I   I288      1.0  0.76347  0.88889  0.94074  1.0000
  I   I289      1.0  0.29825  0.06770  0.73827  1.0000
  I   I290      1.0  0.08508  0.04137  0.13277  1.0000
  I   I291      1.0  0.21375  0.06808  0.47854  1.0000
  I   I292      1.0  0.10585  0.34754  0.10764  1.0000
  I   I293      1.0  0.08654  0.38216  0.39707  1.0000
  I   I294      1.0  0.07928  0.39597  0.74584  1.0000
  I   I295      1.0  0.04389  0.62844  0.46255  1.0000
  I   I296      1.0  0.87696  0.79084  0.73787  1.0000
  I   I297      1.0  0.88340  0.76705  0.20482  1.0000
  I   I298      1.0  0.97918  0.89023  0.12555  1.0000
  I   I299      1.0  0.89962  0.94596  0.22350  1.0000
  I   I300      1.0  0.02146  0.83748  0.85037  1.0000
  I   I301      1.0  0.38023  0.18402  0.14196  1.0000
  I   I302      1.0  0.39305  0.18602  0.50100  1.0000
  I   I303      1.0  0.38955  0.19423  0.79960  1.0000
  I   I304      1.0  0.24062  0.42579  0.54720  1.0000
  I   I305      1.0  0.19059  0.47992  0.83219  1.0000
  I   I306      1.0  0.19760  0.49162  0.20757  1.0000
  I   I307      1.0  0.27408  0.85835  0.32315  1.0000
  I   I308      1.0  0.25472  0.72048  0.92339  1.0000
  I   I309      1.0  0.30037  0.59393  0.21887  1.0000
  I   I310      1.0  0.29234  0.88096  0.65384  1.0000
  I   I311      1.0  0.41022  0.87071  0.88078  1.0000
  I   I312      1.0  0.37468  0.95351  0.28356  1.0000
  I   I313      1.0  0.52809  0.24570  0.37045  1.0000
  I   I314      1.0  0.55997  0.20638  0.70634  1.0000
  I   I315      1.0  0.53594  0.23339  0.03408  1.0000
  I   I316      1.0  0.50188  0.42928  0.99604  1.0000
  I   I317      1.0  0.46879  0.44247  0.28413  1.0000
  I   I318      1.0  0.51503  0.41308  0.68505  1.0000
  I   I319      1.0  0.53452  0.59832  0.01364  1.0000
  I   I320      1.0  0.47554  0.67606  0.36295  1.0000
  I   I321      1.0  0.60712  0.54501  0.76146  1.0000
  I   I322      1.0  0.59145  0.76162  0.11370  1.0000
  I   I323      1.0  0.58978  0.77210  0.45487  1.0000
  I   I324      1.0  0.60542  0.75591  0.79134  1.0000
  I   I325      1.0  0.81631  0.23151  0.03859  1.0000
  I   I326      1.0  0.82742  0.23166  0.38432  1.0000
  I   I327      1.0  0.82250  0.25664  0.72490  1.0000
  I   I328      1.0  0.91387  0.31289  0.84978  1.0000
  I   I329      1.0  0.90414  0.29915  0.29963  1.0000
  I   I330      1.0  0.96217  0.27427  0.63559  1.0000
  I   I331      1.0  0.84520  0.58343  0.14096  1.0000
  I   I332      1.0  0.84911  0.55869  0.46221  1.0000
  I   I333      1.0  0.84368  0.57418  0.83513  1.0000
  I   I334      1.0  0.62915  0.99387  0.08263  1.0000
  I   I335      1.0  0.68693  0.94203  0.45833  1.0000
  I   I336      1.0  0.65508  0.96534  0.72822  1.0000
  I   I337      1.0  0.25175  0.13574  0.61894  1.0000
  I   I338      1.0  0.13539  0.05627  0.02094  1.0000
  I   I339      1.0  0.19146  0.10485  0.30400  1.0000
  I   I340      1.0  0.10716  0.42835  0.03294  1.0000
  I   I341      1.0  0.11954  0.44103  0.33025  1.0000
  I   I342      1.0  0.12983  0.43002  0.65567  1.0000
  I   I343      1.0  0.03895  0.71681  0.39204  1.0000
  I   I344      1.0  0.95251  0.81586  0.76942  1.0000
  I   I345      1.0  0.89635  0.82871  0.11631  1.0000
  I   I346      1.0  0.98046  0.96258  0.03979  1.0000
  I   I347      1.0  0.88697  0.98165  0.39122  1.0000
  I   I348      1.0  0.01048  0.89650  0.71713  1.0000
  I   I349      1.0  0.42512  0.23597  0.09556  1.0000
  I   I350      1.0  0.44259  0.20479  0.37864  1.0000
  I   I351      1.0  0.44348  0.22761  0.69378  1.0000
  I   I352      1.0  0.29024  0.45191  0.42456  1.0000
  I   I353      1.0  0.23107  0.52884  0.70431  1.0000
  I   I354      1.0  0.17894  0.57252  0.07690  1.0000
  I   I355      1.0  0.28346  0.79945  0.19222  1.0000
  I   I356      1.0  0.27854  0.64444  0.79747  1.0000
  I   I357      1.0  0.28238  0.57613  0.38737  1.0000
  I   I358      1.0  0.33848  0.92826  0.55999  1.0000
  I   I359      1.0  0.50689  0.79250  0.89242  1.0000
  I   I360      1.0  0.45142  0.98068  0.22269  1.0000
  I   I361      1.0  0.57212  0.29488  0.28653  1.0000
  I   I362      1.0  0.59009  0.26674  0.61536  1.0000
  I   I363      1.0  0.56369  0.29085  0.95454  1.0000
  I   I364      1.0  0.53441  0.48053  0.88909  1.0000
  I   I365      1.0  0.48325  0.52579  0.22502  1.0000
  I   I366      1.0  0.51344  0.47917  0.57548  1.0000
  I   I367      1.0  0.58503  0.64127  0.93421  1.0000
  I   I368      1.0  0.49713  0.74662  0.34470  1.0000
  I   I369      1.0  0.64421  0.58369  0.64421  1.0000
  I   I370      1.0  0.59509  0.84393  0.03165  1.0000
  I   I371      1.0  0.60625  0.84084  0.35765  1.0000
  I   I372      1.0  0.61086  0.82280  0.69312  1.0000
  I   I373      1.0  0.90526  0.20031  0.98608  1.0000
  I   I374      1.0  0.91592  0.19047  0.30328  1.0000
  I   I375      1.0  0.89456  0.21712  0.61203  1.0000
  I   I376      1.0  0.95846  0.36677  0.87736  1.0000
  I   I377      1.0  0.92813  0.36002  0.22721  1.0000
  I   I378      1.0  0.03297  0.29385  0.58011  1.0000
  I   I379      1.0  0.84970  0.65383  0.03481  1.0000
  I   I380      1.0  0.90466  0.59111  0.40301  1.0000
  I   I381      1.0  0.86224  0.61332  0.68269  1.0000
  I   I382      1.0  0.64278  0.06048  0.02106  1.0000
  I   I383      1.0  0.66855  0.01933  0.33950  1.0000
  I   I384      1.0  0.67856  0.03753  0.65700  1.0000
