data_image0
_chemical_formula_structural       Ti96I384
_chemical_formula_sum              "Ti96 I384"
_cell_length_a       36.6068
_cell_length_b       36.1458
_cell_length_c       22.142
_cell_angle_alpha    88.7757
_cell_angle_beta     88.7757
_cell_angle_gamma    62.1586

_space_group_name_H-M_alt    "P 1"
_space_group_IT_number       1

loop_
  _space_group_symop_operation_xyz
  'x, y, z'

loop_
  _atom_site_type_symbol
  _atom_site_label
  _atom_site_symmetry_multiplicity
  _atom_site_fract_x
  _atom_site_fract_y
  _atom_site_fract_z
  _atom_site_occupancy
  Ti  Ti1       1.0  0.14514  0.10746  0.23727  1.0000
  Ti  Ti2       1.0  0.14422  0.09086  0.56812  1.0000
  Ti  Ti3       1.0  0.16343  0.09186  0.89743  1.0000
  Ti  Ti4       1.0  0.14204  0.33840  0.26506  1.0000
  Ti  Ti5       1.0  0.15367  0.33086  0.59403  1.0000
  Ti  Ti6       1.0  0.14845  0.33913  0.92346  1.0000
  Ti  Ti7       1.0  0.16514  0.58036  0.24697  1.0000
  Ti  Ti8       1.0  0.16374  0.58753  0.57410  1.0000
  Ti  Ti9       1.0  0.16920  0.59460  0.90399  1.0000
  Ti  Ti10      1.0  0.15025  0.85069  0.23831  1.0000
  Ti  Ti11      1.0  0.14297  0.84710  0.57623  1.0000
  Ti  Ti12      1.0  0.15064  0.85711  0.90929  1.0000
  Ti  Ti13      1.0  0.38750  0.09318  0.28379  1.0000
  Ti  Ti14      1.0  0.40292  0.09267  0.60526  1.0000
  Ti  Ti15      1.0  0.39459  0.09140  0.92471  1.0000
  Ti  Ti16      1.0  0.40676  0.33170  0.28009  1.0000
  Ti  Ti17      1.0  0.40695  0.32739  0.62157  1.0000
  Ti  Ti18      1.0  0.39671  0.34407  0.95451  1.0000
  Ti  Ti19      1.0  0.39846  0.61495  0.25234  1.0000
  Ti  Ti20      1.0  0.39942  0.62018  0.57023  1.0000
  Ti  Ti21      1.0  0.41590  0.58947  0.92639  1.0000
  Ti  Ti22      1.0  0.42049  0.84100  0.26058  1.0000
  Ti  Ti23      1.0  0.42462  0.82581  0.57636  1.0000
  Ti  Ti24      1.0  0.42139  0.83255  0.90645  1.0000
  Ti  Ti25      1.0  0.67413  0.07470  0.21756  1.0000
  Ti  Ti26      1.0  0.66835  0.08001  0.55677  1.0000
  Ti  Ti27      1.0  0.67303  0.07369  0.89473  1.0000
  Ti  Ti28      1.0  0.64963  0.35707  0.28686  1.0000
  Ti  Ti29      1.0  0.64615  0.35148  0.60195  1.0000
  Ti  Ti30      1.0  0.65224  0.34665  0.94228  1.0000
  Ti  Ti31      1.0  0.66802  0.59242  0.24967  1.0000
  Ti  Ti32      1.0  0.66761  0.58070  0.58973  1.0000
  Ti  Ti33      1.0  0.66768  0.58246  0.93055  1.0000
  Ti  Ti34      1.0  0.65620  0.85907  0.23790  1.0000
  Ti  Ti35      1.0  0.65266  0.84942  0.55649  1.0000
  Ti  Ti36      1.0  0.64878  0.85673  0.88658  1.0000
  Ti  Ti37      1.0  0.90298  0.09222  0.22988  1.0000
  Ti  Ti38      1.0  0.90424  0.10026  0.57369  1.0000
  Ti  Ti39      1.0  0.90215  0.09391  0.89458  1.0000
  Ti  Ti40      1.0  0.90779  0.34350  0.27148  1.0000
  Ti  Ti41      1.0  0.90560  0.33542  0.60680  1.0000
  Ti  Ti42      1.0  0.91199  0.34062  0.93916  1.0000
  Ti  Ti43      1.0  0.92044  0.58565  0.25901  1.0000
  Ti  Ti44      1.0  0.92377  0.59059  0.58542  1.0000
  Ti  Ti45      1.0  0.92285  0.59202  0.92184  1.0000
  Ti  Ti46      1.0  0.93405  0.83289  0.23886  1.0000
  Ti  Ti47      1.0  0.91271  0.83814  0.57427  1.0000
  Ti  Ti48      1.0  0.92262  0.84438  0.89288  1.0000
  Ti  Ti49      1.0  0.08772  0.15502  0.06737  1.0000
  Ti  Ti50      1.0  0.07393  0.16058  0.39083  1.0000
  Ti  Ti51      1.0  0.08761  0.15189  0.74158  1.0000
  Ti  Ti52      1.0  0.08064  0.40545  0.09234  1.0000
  Ti  Ti53      1.0  0.07886  0.40733  0.42129  1.0000
  Ti  Ti54      1.0  0.08901  0.41652  0.76195  1.0000
  Ti  Ti55      1.0  0.10054  0.65582  0.07475  1.0000
  Ti  Ti56      1.0  0.10317  0.66229  0.40676  1.0000
  Ti  Ti57      1.0  0.10557  0.66440  0.73262  1.0000
  Ti  Ti58      1.0  0.08444  0.91292  0.07779  1.0000
  Ti  Ti59      1.0  0.08128  0.92064  0.41103  1.0000
  Ti  Ti60      1.0  0.07820  0.91844  0.73621  1.0000
  Ti  Ti61      1.0  0.33341  0.16237  0.10432  1.0000
  Ti  Ti62      1.0  0.32634  0.16748  0.44750  1.0000
  Ti  Ti63      1.0  0.33018  0.16350  0.76990  1.0000
  Ti  Ti64      1.0  0.32800  0.40642  0.11152  1.0000
  Ti  Ti65      1.0  0.34634  0.38765  0.45299  1.0000
  Ti  Ti66      1.0  0.32861  0.40111  0.77816  1.0000
  Ti  Ti67      1.0  0.33315  0.66866  0.07963  1.0000
  Ti  Ti68      1.0  0.32893  0.68594  0.41343  1.0000
  Ti  Ti69      1.0  0.32895  0.67453  0.74900  1.0000
  Ti  Ti70      1.0  0.35757  0.88968  0.06595  1.0000
  Ti  Ti71      1.0  0.34311  0.90796  0.42729  1.0000
  Ti  Ti72      1.0  0.34895  0.89472  0.74543  1.0000
  Ti  Ti73      1.0  0.59699  0.13134  0.06215  1.0000
  Ti  Ti74      1.0  0.59918  0.13271  0.38778  1.0000
  Ti  Ti75      1.0  0.60883  0.13679  0.72991  1.0000
  Ti  Ti76      1.0  0.58826  0.41341  0.11056  1.0000
  Ti  Ti77      1.0  0.57983  0.41330  0.44064  1.0000
  Ti  Ti78      1.0  0.58780  0.41420  0.78151  1.0000
  Ti  Ti79      1.0  0.60223  0.65867  0.08422  1.0000
  Ti  Ti80      1.0  0.61099  0.65027  0.42674  1.0000
  Ti  Ti81      1.0  0.59758  0.65816  0.76373  1.0000
  Ti  Ti82      1.0  0.58423  0.92548  0.06576  1.0000
  Ti  Ti83      1.0  0.57976  0.91827  0.39684  1.0000
  Ti  Ti84      1.0  0.58207  0.91124  0.71645  1.0000
  Ti  Ti85      1.0  0.84065  0.15952  0.05829  1.0000
  Ti  Ti86      1.0  0.83658  0.16241  0.39790  1.0000
  Ti  Ti87      1.0  0.82747  0.16240  0.72758  1.0000
  Ti  Ti88      1.0  0.84003  0.40613  0.09943  1.0000
  Ti  Ti89      1.0  0.85150  0.41073  0.44061  1.0000
  Ti  Ti90      1.0  0.84164  0.40813  0.77406  1.0000
  Ti  Ti91      1.0  0.85174  0.65646  0.09081  1.0000
  Ti  Ti92      1.0  0.85722  0.65940  0.41110  1.0000
  Ti  Ti93      1.0  0.85762  0.65737  0.74626  1.0000
  Ti  Ti94      1.0  0.86891  0.89493  0.07271  1.0000
  Ti  Ti95      1.0  0.85876  0.89796  0.40682  1.0000
  Ti  Ti96      1.0  0.85133  0.90687  0.73997  1.0000
  I   I1        1.0  0.05818  0.13247  0.28401  1.0000
  I   I2        1.0  0.06737  0.12343  0.63994  1.0000
  I   I3        1.0  0.08076  0.12036  0.95314  1.0000
  I   I4        1.0  0.06212  0.37460  0.32324  1.0000
  I   I5        1.0  0.07504  0.36749  0.66377  1.0000
  I   I6        1.0  0.06270  0.38014  0.97943  1.0000
  I   I7        1.0  0.08777  0.61901  0.31554  1.0000
  I   I8        1.0  0.08980  0.62093  0.64401  1.0000
  I   I9        1.0  0.09084  0.61790  0.97085  1.0000
  I   I10       1.0  0.08066  0.87070  0.30394  1.0000
  I   I11       1.0  0.06042  0.88415  0.63432  1.0000
  I   I12       1.0  0.07189  0.88800  0.96780  1.0000
  I   I13       1.0  0.31182  0.12856  0.34052  1.0000
  I   I14       1.0  0.32014  0.12534  0.67394  1.0000
  I   I15       1.0  0.30890  0.13843  0.00477  1.0000
  I   I16       1.0  0.32574  0.36409  0.34260  1.0000
  I   I17       1.0  0.32102  0.36384  0.67029  1.0000
  I   I18       1.0  0.30763  0.37794  0.00999  1.0000
  I   I19       1.0  0.30986  0.65867  0.30655  1.0000
  I   I20       1.0  0.32495  0.63249  0.63911  1.0000
  I   I21       1.0  0.33099  0.61271  0.98990  1.0000
  I   I22       1.0  0.33144  0.86986  0.32484  1.0000
  I   I23       1.0  0.34943  0.85252  0.64476  1.0000
  I   I24       1.0  0.33764  0.85462  0.97256  1.0000
  I   I25       1.0  0.59474  0.09160  0.28679  1.0000
  I   I26       1.0  0.59338  0.10102  0.62530  1.0000
  I   I27       1.0  0.59209  0.10172  0.95272  1.0000
  I   I28       1.0  0.56856  0.38458  0.33107  1.0000
  I   I29       1.0  0.57290  0.37851  0.67874  1.0000
  I   I30       1.0  0.58295  0.35961  0.02137  1.0000
  I   I31       1.0  0.59869  0.61979  0.31828  1.0000
  I   I32       1.0  0.58458  0.61406  0.66795  1.0000
  I   I33       1.0  0.58340  0.62167  0.97746  1.0000
  I   I34       1.0  0.57172  0.87645  0.29918  1.0000
  I   I35       1.0  0.56784  0.87239  0.63032  1.0000
  I   I36       1.0  0.57237  0.87976  0.96651  1.0000
  I   I37       1.0  0.81717  0.13936  0.28890  1.0000
  I   I38       1.0  0.82823  0.11382  0.63146  1.0000
  I   I39       1.0  0.82346  0.12756  0.96317  1.0000
  I   I40       1.0  0.83218  0.39070  0.33098  1.0000
  I   I41       1.0  0.82166  0.39048  0.65553  1.0000
  I   I42       1.0  0.82894  0.36988  0.00135  1.0000
  I   I43       1.0  0.83919  0.62428  0.31292  1.0000
  I   I44       1.0  0.84440  0.62663  0.64340  1.0000
  I   I45       1.0  0.83766  0.62029  0.98714  1.0000
  I   I46       1.0  0.84744  0.85866  0.30989  1.0000
  I   I47       1.0  0.83064  0.87108  0.63689  1.0000
  I   I48       1.0  0.85012  0.86320  0.95881  1.0000
  I   I49       1.0  0.11508  0.17809  0.17250  1.0000
  I   I50       1.0  0.11340  0.16630  0.49591  1.0000
  I   I51       1.0  0.13648  0.16842  0.83371  1.0000
  I   I52       1.0  0.11508  0.42289  0.19729  1.0000
  I   I53       1.0  0.12002  0.40970  0.52611  1.0000
  I   I54       1.0  0.12818  0.42338  0.85636  1.0000
  I   I55       1.0  0.14438  0.65999  0.17039  1.0000
  I   I56       1.0  0.13941  0.67031  0.50804  1.0000
  I   I57       1.0  0.13336  0.68215  0.83640  1.0000
  I   I58       1.0  0.10871  0.93547  0.17592  1.0000
  I   I59       1.0  0.11210  0.93581  0.51148  1.0000
  I   I60       1.0  0.11427  0.93496  0.83173  1.0000
  I   I61       1.0  0.36156  0.17595  0.20787  1.0000
  I   I62       1.0  0.36049  0.18330  0.54883  1.0000
  I   I63       1.0  0.36346  0.17267  0.88151  1.0000
  I   I64       1.0  0.36982  0.41600  0.21501  1.0000
  I   I65       1.0  0.37825  0.40637  0.55079  1.0000
  I   I66       1.0  0.35116  0.42737  0.88888  1.0000
  I   I67       1.0  0.36681  0.69132  0.17175  1.0000
  I   I68       1.0  0.35883  0.69881  0.52097  1.0000
  I   I69       1.0  0.36927  0.68560  0.83781  1.0000
  I   I70       1.0  0.38986  0.91111  0.16841  1.0000
  I   I71       1.0  0.39110  0.91184  0.51602  1.0000
  I   I72       1.0  0.37715  0.91403  0.84848  1.0000
  I   I73       1.0  0.62902  0.15660  0.15884  1.0000
  I   I74       1.0  0.63210  0.15524  0.48334  1.0000
  I   I75       1.0  0.63360  0.15578  0.83490  1.0000
  I   I76       1.0  0.60246  0.43983  0.21256  1.0000
  I   I77       1.0  0.60170  0.43570  0.55107  1.0000
  I   I78       1.0  0.61842  0.43534  0.88205  1.0000
  I   I79       1.0  0.63992  0.67238  0.17716  1.0000
  I   I80       1.0  0.63204  0.66520  0.53840  1.0000
  I   I81       1.0  0.63929  0.66842  0.85407  1.0000
  I   I82       1.0  0.61267  0.93931  0.17950  1.0000
  I   I83       1.0  0.60613  0.93323  0.51088  1.0000
  I   I84       1.0  0.60959  0.93542  0.82822  1.0000
  I   I85       1.0  0.87623  0.17291  0.16199  1.0000
  I   I86       1.0  0.85795  0.17983  0.51286  1.0000
  I   I87       1.0  0.85900  0.17569  0.83938  1.0000
  I   I88       1.0  0.88146  0.42028  0.20227  1.0000
  I   I89       1.0  0.88711  0.42011  0.54439  1.0000
  I   I90       1.0  0.86600  0.42225  0.88059  1.0000
  I   I91       1.0  0.89543  0.66369  0.19116  1.0000
  I   I92       1.0  0.89112  0.67242  0.51561  1.0000
  I   I93       1.0  0.88543  0.67741  0.85474  1.0000
  I   I94       1.0  0.89507  0.91372  0.17046  1.0000
  I   I95       1.0  0.87658  0.92203  0.51404  1.0000
  I   I96       1.0  0.88726  0.92850  0.83016  1.0000
  I   I97       1.0  0.16644  0.13621  0.00254  1.0000
  I   I98       1.0  0.15546  0.13932  0.33790  1.0000
  I   I99       1.0  0.15629  0.13957  0.66210  1.0000
  I   I100      1.0  0.16516  0.36912  0.03501  1.0000
  I   I101      1.0  0.15921  0.37496  0.36203  1.0000
  I   I102      1.0  0.16683  0.37134  0.69560  1.0000
  I   I103      1.0  0.18035  0.62886  0.01106  1.0000
  I   I104      1.0  0.17964  0.62122  0.34034  1.0000
  I   I105      1.0  0.18352  0.62628  0.67126  1.0000
  I   I106      1.0  0.16658  0.89153  0.01127  1.0000
  I   I107      1.0  0.15974  0.88208  0.35026  1.0000
  I   I108      1.0  0.15638  0.89064  0.66391  1.0000
  I   I109      1.0  0.41469  0.11665  0.03948  1.0000
  I   I110      1.0  0.41107  0.12208  0.38053  1.0000
  I   I111      1.0  0.41450  0.11908  0.71232  1.0000
  I   I112      1.0  0.40924  0.37948  0.05668  1.0000
  I   I113      1.0  0.42235  0.37122  0.37367  1.0000
  I   I114      1.0  0.40948  0.36860  0.71785  1.0000
  I   I115      1.0  0.40881  0.64871  0.01068  1.0000
  I   I116      1.0  0.40189  0.66042  0.35361  1.0000
  I   I117      1.0  0.41311  0.64141  0.68719  1.0000
  I   I118      1.0  0.43487  0.86888  0.00713  1.0000
  I   I119      1.0  0.42027  0.89056  0.35162  1.0000
  I   I120      1.0  0.43859  0.86260  0.67491  1.0000
  I   I121      1.0  0.67844  0.11240  0.00011  1.0000
  I   I122      1.0  0.67446  0.11334  0.32000  1.0000
  I   I123      1.0  0.68753  0.11023  0.65957  1.0000
  I   I124      1.0  0.66576  0.38595  0.04239  1.0000
  I   I125      1.0  0.65677  0.39442  0.38706  1.0000
  I   I126      1.0  0.66592  0.38116  0.70675  1.0000
  I   I127      1.0  0.67884  0.62750  0.01615  1.0000
  I   I128      1.0  0.69119  0.62117  0.35155  1.0000
  I   I129      1.0  0.68035  0.61414  0.70026  1.0000
  I   I130      1.0  0.66592  0.88021  0.00388  1.0000
  I   I131      1.0  0.66334  0.89702  0.34303  1.0000
  I   I132      1.0  0.66057  0.88679  0.65763  1.0000
  I   I133      1.0  0.92003  0.12456  0.99850  1.0000
  I   I134      1.0  0.91635  0.12759  0.33384  1.0000
  I   I135      1.0  0.90933  0.13997  0.67431  1.0000
  I   I136      1.0  0.92420  0.37182  0.04058  1.0000
  I   I137      1.0  0.92813  0.36785  0.38284  1.0000
  I   I138      1.0  0.92576  0.36752  0.69643  1.0000
  I   I139      1.0  0.92432  0.64288  0.01852  1.0000
  I   I140      1.0  0.94300  0.60688  0.36097  1.0000
  I   I141      1.0  0.94139  0.62352  0.67931  1.0000
  I   I142      1.0  0.94229  0.86899  0.00369  1.0000
  I   I143      1.0  0.94902  0.86927  0.33025  1.0000
  I   I144      1.0  0.92609  0.87937  0.66930  1.0000
  I   I145      1.0  0.13145  0.07478  0.13208  1.0000
  I   I146      1.0  0.11203  0.07609  0.46309  1.0000
  I   I147      1.0  0.13550  0.07157  0.79884  1.0000
  I   I148      1.0  0.11064  0.32932  0.16117  1.0000
  I   I149      1.0  0.12286  0.31944  0.48898  1.0000
  I   I150      1.0  0.10720  0.33651  0.82714  1.0000
  I   I151      1.0  0.13031  0.56934  0.14968  1.0000
  I   I152      1.0  0.13433  0.57603  0.46807  1.0000
  I   I153      1.0  0.13611  0.58402  0.80348  1.0000
  I   I154      1.0  0.12817  0.82520  0.13739  1.0000
  I   I155      1.0  0.11527  0.82691  0.47512  1.0000
  I   I156      1.0  0.11852  0.83756  0.80438  1.0000
  I   I157      1.0  0.35644  0.08471  0.17506  1.0000
  I   I158      1.0  0.35970  0.08455  0.50744  1.0000
  I   I159      1.0  0.35090  0.08472  0.83073  1.0000
  I   I160      1.0  0.36719  0.32181  0.17113  1.0000
  I   I161      1.0  0.38049  0.30454  0.50913  1.0000
  I   I162      1.0  0.37361  0.32153  0.85402  1.0000
  I   I163      1.0  0.37283  0.58928  0.15642  1.0000
  I   I164      1.0  0.37072  0.59225  0.47104  1.0000
  I   I165      1.0  0.38532  0.58162  0.82276  1.0000
  I   I166      1.0  0.39475  0.81435  0.15739  1.0000
  I   I167      1.0  0.38094  0.81990  0.47901  1.0000
  I   I168      1.0  0.39113  0.81433  0.80810  1.0000
  I   I169      1.0  0.64539  0.04869  0.11984  1.0000
  I   I170      1.0  0.63634  0.05803  0.45446  1.0000
  I   I171      1.0  0.64285  0.05608  0.78762  1.0000
  I   I172      1.0  0.62002  0.33281  0.18357  1.0000
  I   I173      1.0  0.60006  0.33827  0.51354  1.0000
  I   I174      1.0  0.62208  0.33446  0.84146  1.0000
  I   I175      1.0  0.63500  0.57688  0.14192  1.0000
  I   I176      1.0  0.63061  0.57015  0.48423  1.0000
  I   I177      1.0  0.63142  0.57706  0.82819  1.0000
  I   I178      1.0  0.62440  0.84499  0.13598  1.0000
  I   I179      1.0  0.60700  0.83539  0.46904  1.0000
  I   I180      1.0  0.61468  0.83342  0.79622  1.0000
  I   I181      1.0  0.86640  0.08221  0.13265  1.0000
  I   I182      1.0  0.86803  0.08568  0.46449  1.0000
  I   I183      1.0  0.86764  0.07372  0.79666  1.0000
  I   I184      1.0  0.86479  0.32704  0.17214  1.0000
  I   I185      1.0  0.86987  0.33237  0.49831  1.0000
  I   I186      1.0  0.87168  0.32489  0.82845  1.0000
  I   I187      1.0  0.89153  0.57194  0.15062  1.0000
  I   I188      1.0  0.87602  0.58298  0.48025  1.0000
  I   I189      1.0  0.89103  0.58073  0.81644  1.0000
  I   I190      1.0  0.90550  0.81251  0.13478  1.0000
  I   I191      1.0  0.89202  0.81695  0.46892  1.0000
  I   I192      1.0  0.88390  0.82537  0.80400  1.0000
  I   I193      1.0  0.22382  0.08367  0.20801  1.0000
  I   I194      1.0  0.21543  0.07477  0.52475  1.0000
  I   I195      1.0  0.24056  0.06989  0.86237  1.0000
  I   I196      1.0  0.21284  0.32226  0.21403  1.0000
  I   I197      1.0  0.22588  0.31675  0.55018  1.0000
  I   I198      1.0  0.22303  0.31103  0.88497  1.0000
  I   I199      1.0  0.24449  0.54696  0.21445  1.0000
  I   I200      1.0  0.23973  0.55449  0.52793  1.0000
  I   I201      1.0  0.24252  0.57907  0.86644  1.0000
  I   I202      1.0  0.22221  0.84185  0.19318  1.0000
  I   I203      1.0  0.21660  0.83448  0.53927  1.0000
  I   I204      1.0  0.22298  0.83903  0.86362  1.0000
  I   I205      1.0  0.45914  0.07039  0.23167  1.0000
  I   I206      1.0  0.47247  0.07815  0.55641  1.0000
  I   I207      1.0  0.46793  0.05877  0.87461  1.0000
  I   I208      1.0  0.47754  0.30179  0.23276  1.0000
  I   I209      1.0  0.47720  0.31019  0.57044  1.0000
  I   I210      1.0  0.46542  0.32858  0.90474  1.0000
  I   I211      1.0  0.47382  0.59960  0.22376  1.0000
  I   I212      1.0  0.46696  0.61628  0.51813  1.0000
  I   I213      1.0  0.48654  0.57847  0.88908  1.0000
  I   I214      1.0  0.49367  0.82813  0.22421  1.0000
  I   I215      1.0  0.49875  0.81017  0.54062  1.0000
  I   I216      1.0  0.49164  0.81829  0.85907  1.0000
  I   I217      1.0  0.73853  0.07366  0.17016  1.0000
  I   I218      1.0  0.74019  0.05978  0.50568  1.0000
  I   I219      1.0  0.74312  0.06275  0.84728  1.0000
  I   I220      1.0  0.72268  0.34324  0.25233  1.0000
  I   I221      1.0  0.71948  0.33147  0.55399  1.0000
  I   I222      1.0  0.71837  0.34024  0.88946  1.0000
  I   I223      1.0  0.73826  0.57939  0.19947  1.0000
  I   I224      1.0  0.73765  0.57006  0.54000  1.0000
  I   I225      1.0  0.73788  0.56316  0.87393  1.0000
  I   I226      1.0  0.72567  0.84629  0.19664  1.0000
  I   I227      1.0  0.72197  0.83813  0.50475  1.0000
  I   I228      1.0  0.71979  0.83256  0.83811  1.0000
  I   I229      1.0  0.97605  0.07247  0.18051  1.0000
  I   I230      1.0  0.96783  0.09553  0.51313  1.0000
  I   I231      1.0  0.97555  0.07253  0.85165  1.0000
  I   I232      1.0  0.97994  0.31759  0.21855  1.0000
  I   I233      1.0  0.97531  0.30670  0.54461  1.0000
  I   I234      1.0  0.98152  0.32795  0.88357  1.0000
  I   I235      1.0  0.99169  0.57135  0.21377  1.0000
  I   I236      1.0  0.99433  0.56295  0.53273  1.0000
  I   I237      1.0  0.99480  0.58475  0.88901  1.0000
  I   I238      1.0  0.00529  0.82082  0.18660  1.0000
  I   I239      1.0  0.98703  0.82541  0.53102  1.0000
  I   I240      1.0  0.98728  0.81927  0.81886  1.0000
  I   I241      1.0  0.15948  0.03474  0.29241  1.0000
  I   I242      1.0  0.17870  0.01901  0.62324  1.0000
  I   I243      1.0  0.18708  0.01831  0.94829  1.0000
  I   I244      1.0  0.16631  0.26446  0.31209  1.0000
  I   I245      1.0  0.18042  0.25399  0.63057  1.0000
  I   I246      1.0  0.15466  0.27055  0.97568  1.0000
  I   I247      1.0  0.17623  0.50927  0.29572  1.0000
  I   I248      1.0  0.18208  0.51623  0.62683  1.0000
  I   I249      1.0  0.19280  0.51937  0.93855  1.0000
  I   I250      1.0  0.18628  0.77288  0.28384  1.0000
  I   I251      1.0  0.17853  0.77088  0.62522  1.0000
  I   I252      1.0  0.17441  0.78578  0.95996  1.0000
  I   I253      1.0  0.39802  0.02177  0.33746  1.0000
  I   I254      1.0  0.42981  0.01152  0.62618  1.0000
  I   I255      1.0  0.40528  0.01799  0.96959  1.0000
  I   I256      1.0  0.41933  0.25954  0.32711  1.0000
  I   I257      1.0  0.43168  0.24730  0.65703  1.0000
  I   I258      1.0  0.42517  0.26932  0.99558  1.0000
  I   I259      1.0  0.42139  0.54697  0.31156  1.0000
  I   I260      1.0  0.43011  0.54075  0.59870  1.0000
  I   I261      1.0  0.43415  0.51897  0.97923  1.0000
  I   I262      1.0  0.44101  0.77175  0.31613  1.0000
  I   I263      1.0  0.44640  0.74955  0.61610  1.0000
  I   I264      1.0  0.44811  0.75825  0.95419  1.0000
  I   I265      1.0  0.71428  0.99829  0.25714  1.0000
  I   I266      1.0  0.69574  0.00217  0.60389  1.0000
  I   I267      1.0  0.69882  0.99767  0.92931  1.0000
  I   I268      1.0  0.66436  0.28294  0.32565  1.0000
  I   I269      1.0  0.67546  0.27894  0.65703  1.0000
  I   I270      1.0  0.68734  0.26858  0.97419  1.0000
  I   I271      1.0  0.69083  0.51691  0.29056  1.0000
  I   I272      1.0  0.69783  0.50966  0.64307  1.0000
  I   I273      1.0  0.69144  0.50747  0.98128  1.0000
  I   I274      1.0  0.68315  0.77728  0.26623  1.0000
  I   I275      1.0  0.68492  0.76725  0.59214  1.0000
  I   I276      1.0  0.68086  0.78024  0.93645  1.0000
  I   I277      1.0  0.92831  0.01962  0.28418  1.0000
  I   I278      1.0  0.93829  0.02166  0.61391  1.0000
  I   I279      1.0  0.92566  0.02178  0.94843  1.0000
  I   I280      1.0  0.92879  0.26805  0.31984  1.0000
  I   I281      1.0  0.91806  0.26395  0.65041  1.0000
  I   I282      1.0  0.93904  0.26121  0.96675  1.0000
  I   I283      1.0  0.94027  0.51085  0.30204  1.0000
  I   I284      1.0  0.93220  0.51804  0.62252  1.0000
  I   I285      1.0  0.95062  0.51764  0.97134  1.0000
  I   I286      1.0  0.95342  0.75814  0.27859  1.0000
  I   I287      1.0  0.94008  0.76658  0.62861  1.0000
  I   I288      1.0  0.95463  0.76723  0.93363  1.0000
  I   I289      1.0  0.01925  0.15796  0.09865  1.0000
  I   I290      1.0  0.00371  0.18458  0.44282  1.0000
  I   I291      1.0  0.01861  0.16868  0.80493  1.0000
  I   I292      1.0  0.00427  0.43247  0.13175  1.0000
  I   I293      1.0  0.00663  0.43602  0.46813  1.0000
  I   I294      1.0  0.01014  0.44345  0.78637  1.0000
  I   I295      1.0  0.03246  0.67409  0.12825  1.0000
  I   I296      1.0  0.03714  0.67689  0.47152  1.0000
  I   I297      1.0  0.02776  0.69086  0.76568  1.0000
  I   I298      1.0  0.01060  0.92177  0.11333  1.0000
  I   I299      1.0  0.01328  0.92105  0.44575  1.0000
  I   I300      1.0  0.01103  0.92840  0.79343  1.0000
  I   I301      1.0  0.26017  0.19128  0.15066  1.0000
  I   I302      1.0  0.25107  0.19392  0.48950  1.0000
  I   I303      1.0  0.25341  0.19077  0.80203  1.0000
  I   I304      1.0  0.26200  0.41466  0.16425  1.0000
  I   I305      1.0  0.27563  0.40755  0.50269  1.0000
  I   I306      1.0  0.25849  0.41032  0.82114  1.0000
  I   I307      1.0  0.26489  0.67400  0.12655  1.0000
  I   I308      1.0  0.26087  0.68759  0.46000  1.0000
  I   I309      1.0  0.26935  0.67855  0.81328  1.0000
  I   I310      1.0  0.28680  0.90252  0.11615  1.0000
  I   I311      1.0  0.27745  0.92237  0.48998  1.0000
  I   I312      1.0  0.27725  0.90246  0.78159  1.0000
  I   I313      1.0  0.53431  0.13219  0.11744  1.0000
  I   I314      1.0  0.52793  0.14084  0.42946  1.0000
  I   I315      1.0  0.53384  0.15283  0.76823  1.0000
  I   I316      1.0  0.51212  0.42490  0.14840  1.0000
  I   I317      1.0  0.50486  0.44067  0.48834  1.0000
  I   I318      1.0  0.51659  0.42406  0.83156  1.0000
  I   I319      1.0  0.52874  0.67828  0.12573  1.0000
  I   I320      1.0  0.52697  0.69099  0.45069  1.0000
  I   I321      1.0  0.52394  0.67916  0.80766  1.0000
  I   I322      1.0  0.51310  0.94354  0.10962  1.0000
  I   I323      1.0  0.50977  0.93902  0.45077  1.0000
  I   I324      1.0  0.50890  0.93715  0.77275  1.0000
  I   I325      1.0  0.76449  0.18649  0.10758  1.0000
  I   I326      1.0  0.76220  0.18920  0.44068  1.0000
  I   I327      1.0  0.75435  0.18509  0.76665  1.0000
  I   I328      1.0  0.77289  0.42464  0.16022  1.0000
  I   I329      1.0  0.77368  0.45539  0.46392  1.0000
  I   I330      1.0  0.76561  0.43964  0.80706  1.0000
  I   I331      1.0  0.78628  0.66525  0.15234  1.0000
  I   I332      1.0  0.78104  0.70078  0.45356  1.0000
  I   I333      1.0  0.78469  0.68100  0.80333  1.0000
  I   I334      1.0  0.79786  0.90399  0.10891  1.0000
  I   I335      1.0  0.78559  0.91188  0.44424  1.0000
  I   I336      1.0  0.78445  0.91653  0.80152  1.0000
  I   I337      1.0  0.04953  0.23364  0.03488  1.0000
  I   I338      1.0  0.06068  0.23388  0.34769  1.0000
  I   I339      1.0  0.04905  0.23240  0.70812  1.0000
  I   I340      1.0  0.06708  0.48106  0.06570  1.0000
  I   I341      1.0  0.06072  0.47968  0.37389  1.0000
  I   I342      1.0  0.08437  0.48208  0.70900  1.0000
  I   I343      1.0  0.07677  0.72488  0.01469  1.0000
  I   I344      1.0  0.07867  0.73624  0.35993  1.0000
  I   I345      1.0  0.09212  0.74026  0.69356  1.0000
  I   I346      1.0  0.04619  0.99200  0.03227  1.0000
  I   I347      1.0  0.04949  0.99490  0.36535  1.0000
  I   I348      1.0  0.05433  0.99151  0.69079  1.0000
  I   I349      1.0  0.32731  0.23313  0.05827  1.0000
  I   I350      1.0  0.31888  0.23357  0.39301  1.0000
  I   I351      1.0  0.32237  0.23646  0.74521  1.0000
  I   I352      1.0  0.31529  0.48270  0.07564  1.0000
  I   I353      1.0  0.31679  0.46460  0.40323  1.0000
  I   I354      1.0  0.29995  0.47599  0.73509  1.0000
  I   I355      1.0  0.30530  0.73807  0.02635  1.0000
  I   I356      1.0  0.29547  0.76213  0.37096  1.0000
  I   I357      1.0  0.29643  0.74787  0.69848  1.0000
  I   I358      1.0  0.32885  0.96527  0.02135  1.0000
  I   I359      1.0  0.31057  0.98563  0.37928  1.0000
  I   I360      1.0  0.32399  0.96617  0.69659  1.0000
  I   I361      1.0  0.55733  0.20891  0.01381  1.0000
  I   I362      1.0  0.56283  0.20761  0.34055  1.0000
  I   I363      1.0  0.58302  0.20643  0.67679  1.0000
  I   I364      1.0  0.55578  0.48648  0.05646  1.0000
  I   I365      1.0  0.55125  0.48938  0.39186  1.0000
  I   I366      1.0  0.55763  0.49234  0.74314  1.0000
  I   I367      1.0  0.58183  0.73124  0.02939  1.0000
  I   I368      1.0  0.59903  0.72295  0.38742  1.0000
  I   I369      1.0  0.58586  0.72615  0.70892  1.0000
  I   I370      1.0  0.57823  0.99153  0.00617  1.0000
  I   I371      1.0  0.55715  0.99690  0.37357  1.0000
  I   I372      1.0  0.55955  0.98737  0.68158  1.0000
  I   I373      1.0  0.81889  0.23503  0.01873  1.0000
  I   I374      1.0  0.82314  0.23462  0.35771  1.0000
  I   I375      1.0  0.80524  0.23166  0.66952  1.0000
  I   I376      1.0  0.81641  0.48365  0.06756  1.0000
  I   I377      1.0  0.85725  0.47891  0.39680  1.0000
  I   I378      1.0  0.84003  0.47320  0.72407  1.0000
  I   I379      1.0  0.81844  0.73354  0.04912  1.0000
  I   I380      1.0  0.85504  0.72366  0.35581  1.0000
  I   I381      1.0  0.84239  0.72855  0.69738  1.0000
  I   I382      1.0  0.84347  0.96973  0.02043  1.0000
  I   I383      1.0  0.83035  0.97264  0.35333  1.0000
  I   I384      1.0  0.81820  0.97777  0.68422  1.0000
