data_image0
_chemical_formula_structural       Ti96I384
_chemical_formula_sum              "Ti96 I384"
_cell_length_a       57.7199
_cell_length_b       58.2503
_cell_length_c       28.2675
_cell_angle_alpha    88.7757
_cell_angle_beta     88.7757
_cell_angle_gamma    62.1586

_space_group_name_H-M_alt    "P 1"
_space_group_IT_number       1

loop_
  _space_group_symop_operation_xyz
  'x, y, z'

loop_
  _atom_site_type_symbol
  _atom_site_label
  _atom_site_symmetry_multiplicity
  _atom_site_fract_x
  _atom_site_fract_y
  _atom_site_fract_z
  _atom_site_occupancy
  Ti  Ti1       1.0  0.91872  0.72902  0.95748  1.0000
  Ti  Ti2       1.0  0.74792  0.98756  0.11460  1.0000
  Ti  Ti3       1.0  0.84537  0.68073  0.60363  1.0000
  Ti  Ti4       1.0  0.33423  0.27120  0.24575  1.0000
  Ti  Ti5       1.0  0.12324  0.86341  0.03061  1.0000
  Ti  Ti6       1.0  0.13594  0.08695  0.23463  1.0000
  Ti  Ti7       1.0  0.96393  0.86057  0.80535  1.0000
  Ti  Ti8       1.0  0.22163  0.78545  0.53676  1.0000
  Ti  Ti9       1.0  0.77775  0.17255  0.97852  1.0000
  Ti  Ti10      1.0  0.47908  0.99897  0.11854  1.0000
  Ti  Ti11      1.0  0.09132  0.55638  0.89040  1.0000
  Ti  Ti12      1.0  0.62636  0.91983  0.96999  1.0000
  Ti  Ti13      1.0  0.38286  0.21741  0.99224  1.0000
  Ti  Ti14      1.0  0.10827  0.40419  0.18340  1.0000
  Ti  Ti15      1.0  0.28150  0.99157  0.86836  1.0000
  Ti  Ti16      1.0  0.02043  0.93288  0.40261  1.0000
  Ti  Ti17      1.0  0.16122  0.63064  0.11515  1.0000
  Ti  Ti18      1.0  0.97890  0.40954  0.11015  1.0000
  Ti  Ti19      1.0  0.75007  0.66427  0.25545  1.0000
  Ti  Ti20      1.0  0.72659  0.82648  0.37858  1.0000
  Ti  Ti21      1.0  0.24549  0.45926  0.24619  1.0000
  Ti  Ti22      1.0  0.48250  0.89757  0.49791  1.0000
  Ti  Ti23      1.0  0.51459  0.85019  0.96275  1.0000
  Ti  Ti24      1.0  0.58984  0.92961  0.63431  1.0000
  Ti  Ti25      1.0  0.19419  0.23188  0.59091  1.0000
  Ti  Ti26      1.0  0.25552  0.36091  0.91526  1.0000
  Ti  Ti27      1.0  0.38710  0.48545  0.46789  1.0000
  Ti  Ti28      1.0  0.55761  0.67633  0.56053  1.0000
  Ti  Ti29      1.0  0.83675  0.38535  0.46006  1.0000
  Ti  Ti30      1.0  0.82568  0.52088  0.63884  1.0000
  Ti  Ti31      1.0  0.75040  0.37659  0.22288  1.0000
  Ti  Ti32      1.0  0.92383  0.04063  0.13983  1.0000
  Ti  Ti33      1.0  0.06173  0.10198  0.57886  1.0000
  Ti  Ti34      1.0  0.90101  0.74988  0.38079  1.0000
  Ti  Ti35      1.0  0.65114  0.61313  0.86138  1.0000
  Ti  Ti36      1.0  0.98547  0.48534  0.54902  1.0000
  Ti  Ti37      1.0  0.90822  0.26558  0.13915  1.0000
  Ti  Ti38      1.0  0.62362  0.27879  0.39718  1.0000
  Ti  Ti39      1.0  0.33244  0.04882  0.33233  1.0000
  Ti  Ti40      1.0  0.29985  0.69761  0.08765  1.0000
  Ti  Ti41      1.0  0.63950  0.42938  0.58388  1.0000
  Ti  Ti42      1.0  0.46645  0.69977  0.16267  1.0000
  Ti  Ti43      1.0  0.02056  0.93303  0.80407  1.0000
  Ti  Ti44      1.0  0.93112  0.56212  0.13313  1.0000
  Ti  Ti45      1.0  0.91215  0.43387  0.89441  1.0000
  Ti  Ti46      1.0  0.70595  0.08904  0.43317  1.0000
  Ti  Ti47      1.0  0.39776  0.36179  0.68238  1.0000
  Ti  Ti48      1.0  0.51890  0.54031  0.08973  1.0000
  Ti  Ti49      1.0  0.89212  0.72659  0.82439  1.0000
  Ti  Ti50      1.0  0.82089  0.96806  0.02355  1.0000
  Ti  Ti51      1.0  0.71978  0.06044  0.10210  1.0000
  Ti  Ti52      1.0  0.38606  0.20895  0.29246  1.0000
  Ti  Ti53      1.0  0.11677  0.83896  0.13558  1.0000
  Ti  Ti54      1.0  0.10603  0.13363  0.09802  1.0000
  Ti  Ti55      1.0  0.99528  0.80936  0.84999  1.0000
  Ti  Ti56      1.0  0.19013  0.76453  0.43555  1.0000
  Ti  Ti57      1.0  0.74312  0.22705  0.06902  1.0000
  Ti  Ti58      1.0  0.09058  0.91648  0.70573  1.0000
  Ti  Ti59      1.0  0.53493  0.01457  0.19684  1.0000
  Ti  Ti60      1.0  0.68559  0.90770  0.91086  1.0000
  Ti  Ti61      1.0  0.27698  0.01218  0.72739  1.0000
  Ti  Ti62      1.0  0.42321  0.13360  0.97217  1.0000
  Ti  Ti63      1.0  0.11615  0.38407  0.28839  1.0000
  Ti  Ti64      1.0  0.94946  0.42215  0.23364  1.0000
  Ti  Ti65      1.0  0.06539  0.88405  0.33913  1.0000
  Ti  Ti66      1.0  0.27266  0.63856  0.63807  1.0000
  Ti  Ti67      1.0  0.66783  0.69342  0.27811  1.0000
  Ti  Ti68      1.0  0.69862  0.89650  0.29754  1.0000
  Ti  Ti69      1.0  0.31083  0.41539  0.27701  1.0000
  Ti  Ti70      1.0  0.53462  0.92680  0.54830  1.0000
  Ti  Ti71      1.0  0.46698  0.91035  0.86049  1.0000
  Ti  Ti72      1.0  0.49720  0.76666  0.79957  1.0000
  Ti  Ti73      1.0  0.40643  0.49957  0.58694  1.0000
  Ti  Ti74      1.0  0.23966  0.25862  0.53635  1.0000
  Ti  Ti75      1.0  0.22342  0.33324  0.85086  1.0000
  Ti  Ti76      1.0  0.78017  0.56557  0.66906  1.0000
  Ti  Ti77      1.0  0.54600  0.69985  0.43630  1.0000
  Ti  Ti78      1.0  0.84377  0.43587  0.42299  1.0000
  Ti  Ti79      1.0  0.11913  0.06217  0.60781  1.0000
  Ti  Ti80      1.0  0.70702  0.40737  0.09254  1.0000
  Ti  Ti81      1.0  0.90223  0.11251  0.19188  1.0000
  Ti  Ti82      1.0  0.90940  0.80042  0.27746  1.0000
  Ti  Ti83      1.0  0.59853  0.57891  0.83802  1.0000
  Ti  Ti84      1.0  0.02909  0.52184  0.61523  1.0000
  Ti  Ti85      1.0  0.91084  0.22411  0.07674  1.0000
  Ti  Ti86      1.0  0.54357  0.31931  0.47626  1.0000
  Ti  Ti87      1.0  0.38759  0.05488  0.43413  1.0000
  Ti  Ti88      1.0  0.24973  0.69936  0.04946  1.0000
  Ti  Ti89      1.0  0.62564  0.47634  0.46887  1.0000
  Ti  Ti90      1.0  0.44512  0.75303  0.13151  1.0000
  Ti  Ti91      1.0  0.92773  0.40792  0.79557  1.0000
  Ti  Ti92      1.0  0.87185  0.10315  0.78877  1.0000
  Ti  Ti93      1.0  0.98433  0.58702  0.15367  1.0000
  Ti  Ti94      1.0  0.55093  0.46279  0.08790  1.0000
  Ti  Ti95      1.0  0.66012  0.08245  0.41068  1.0000
  Ti  Ti96      1.0  0.40511  0.34562  0.78824  1.0000
  I   I1        1.0  0.86241  0.94897  0.07181  1.0000
  I   I2        1.0  0.70884  0.98356  0.08662  1.0000
  I   I3        1.0  0.93944  0.75766  0.98901  1.0000
  I   I4        1.0  0.14927  0.81049  0.05897  1.0000
  I   I5        1.0  0.15359  0.03667  0.22823  1.0000
  I   I6        1.0  0.10019  0.17647  0.13290  1.0000
  I   I7        1.0  0.20160  0.74869  0.34815  1.0000
  I   I8        1.0  0.14135  0.79993  0.42929  1.0000
  I   I9        1.0  0.72872  0.19821  0.11961  1.0000
  I   I10       1.0  0.47763  0.04350  0.17392  1.0000
  I   I11       1.0  0.05245  0.58149  0.94719  1.0000
  I   I12       1.0  0.13753  0.84395  0.94315  1.0000
  I   I13       1.0  0.40243  0.17002  0.04923  1.0000
  I   I14       1.0  0.13887  0.35547  0.35601  1.0000
  I   I15       1.0  0.26174  0.96662  0.92498  1.0000
  I   I16       1.0  0.00442  0.90145  0.35642  1.0000
  I   I17       1.0  0.26649  0.68473  0.62547  1.0000
  I   I18       1.0  0.93458  0.46915  0.27063  1.0000
  I   I19       1.0  0.73410  0.90399  0.24195  1.0000
  I   I20       1.0  0.25828  0.43529  0.33614  1.0000
  I   I21       1.0  0.32124  0.42757  0.35670  1.0000
  I   I22       1.0  0.44221  0.90174  0.79343  1.0000
  I   I23       1.0  0.56473  0.82832  0.96477  1.0000
  I   I24       1.0  0.53003  0.97373  0.56382  1.0000
  I   I25       1.0  0.20934  0.23848  0.49551  1.0000
  I   I26       1.0  0.24619  0.40813  0.91386  1.0000
  I   I27       1.0  0.33891  0.49766  0.43497  1.0000
  I   I28       1.0  0.55334  0.64753  0.49024  1.0000
  I   I29       1.0  0.79412  0.42944  0.47085  1.0000
  I   I30       1.0  0.77873  0.52800  0.59583  1.0000
  I   I31       1.0  0.66340  0.45370  0.11340  1.0000
  I   I32       1.0  0.92996  0.13294  0.16757  1.0000
  I   I33       1.0  0.14649  0.08805  0.58457  1.0000
  I   I34       1.0  0.62358  0.65358  0.90975  1.0000
  I   I35       1.0  0.01424  0.48467  0.64322  1.0000
  I   I36       1.0  0.88633  0.85265  0.27473  1.0000
  I   I37       1.0  0.92972  0.21109  0.17221  1.0000
  I   I38       1.0  0.38584  0.03318  0.33894  1.0000
  I   I39       1.0  0.94267  0.18143  0.03611  1.0000
  I   I40       1.0  0.59935  0.45149  0.49786  1.0000
  I   I41       1.0  0.47519  0.68286  0.25306  1.0000
  I   I42       1.0  0.28096  0.67184  0.98455  1.0000
  I   I43       1.0  0.03498  0.93242  0.70959  1.0000
  I   I44       1.0  0.97608  0.60908  0.23985  1.0000
  I   I45       1.0  0.86717  0.45097  0.93346  1.0000
  I   I46       1.0  0.69862  0.08040  0.34494  1.0000
  I   I47       1.0  0.39395  0.34409  0.60016  1.0000
  I   I48       1.0  0.52289  0.49996  0.01898  1.0000
  I   I49       1.0  0.93365  0.70242  0.03688  1.0000
  I   I50       1.0  0.79101  0.94140  0.06048  1.0000
  I   I51       1.0  0.67815  0.09933  0.05021  1.0000
  I   I52       1.0  0.33209  0.22365  0.29084  1.0000
  I   I53       1.0  0.10110  0.89076  0.14734  1.0000
  I   I54       1.0  0.05667  0.14585  0.08813  1.0000
  I   I55       1.0  0.93964  0.83671  0.85892  1.0000
  I   I56       1.0  0.21038  0.80119  0.42885  1.0000
  I   I57       1.0  0.72756  0.22591  0.97877  1.0000
  I   I58       1.0  0.52941  0.00300  0.11370  1.0000
  I   I59       1.0  0.45134  0.03778  0.06840  1.0000
  I   I60       1.0  0.63552  0.90148  0.87375  1.0000
  I   I61       1.0  0.40642  0.12829  0.89406  1.0000
  I   I62       1.0  0.46964  0.10219  0.98744  1.0000
  I   I63       1.0  0.07820  0.45228  0.19574  1.0000
  I   I64       1.0  0.01635  0.94430  0.49409  1.0000
  I   I65       1.0  0.11680  0.87282  0.33920  1.0000
  I   I66       1.0  0.26441  0.62635  0.55331  1.0000
  I   I67       1.0  0.63060  0.74209  0.27432  1.0000
  I   I68       1.0  0.70901  0.79384  0.36087  1.0000
  I   I69       1.0  0.27375  0.41643  0.20213  1.0000
  I   I70       1.0  0.53597  0.87795  0.52644  1.0000
  I   I71       1.0  0.49122  0.89974  0.98677  1.0000
  I   I72       1.0  0.46863  0.79967  0.73820  1.0000
  I   I73       1.0  0.37837  0.53704  0.50929  1.0000
  I   I74       1.0  0.25621  0.30078  0.91874  1.0000
  I   I75       1.0  0.25682  0.34860  0.81699  1.0000
  I   I76       1.0  0.60072  0.63595  0.58799  1.0000
  I   I77       1.0  0.58939  0.68696  0.48874  1.0000
  I   I78       1.0  0.81829  0.47979  0.45888  1.0000
  I   I79       1.0  0.12479  0.05464  0.69694  1.0000
  I   I80       1.0  0.76851  0.39776  0.28891  1.0000
  I   I81       1.0  0.88095  0.04421  0.17838  1.0000
  I   I82       1.0  0.95593  0.79586  0.29887  1.0000
  I   I83       1.0  0.60602  0.62590  0.80565  1.0000
  I   I84       1.0  0.06591  0.52774  0.56805  1.0000
  I   I85       1.0  0.87352  0.21489  0.03725  1.0000
  I   I86       1.0  0.50520  0.34790  0.41941  1.0000
  I   I87       1.0  0.29572  0.09817  0.30970  1.0000
  I   I88       1.0  0.29066  0.72709  0.00885  1.0000
  I   I89       1.0  0.60267  0.51217  0.53255  1.0000
  I   I90       1.0  0.41024  0.73029  0.18817  1.0000
  I   I91       1.0  0.93618  0.41480  0.70932  1.0000
  I   I92       1.0  0.86702  0.13318  0.86235  1.0000
  I   I93       1.0  0.03122  0.55406  0.13749  1.0000
  I   I94       1.0  0.57147  0.50071  0.11771  1.0000
  I   I95       1.0  0.62393  0.08859  0.47753  1.0000
  I   I96       1.0  0.40866  0.30409  0.74371  1.0000
  I   I97       1.0  0.82617  0.71692  0.53602  1.0000
  I   I98       1.0  0.93141  0.73192  0.86328  1.0000
  I   I99       1.0  0.73044  0.02975  0.02622  1.0000
  I   I100      1.0  0.32299  0.24978  0.17547  1.0000
  I   I101      1.0  0.35838  0.26018  0.33034  1.0000
  I   I102      1.0  0.07365  0.86501  0.06337  1.0000
  I   I103      1.0  0.04885  0.78715  0.83360  1.0000
  I   I104      1.0  0.94134  0.90467  0.85316  1.0000
  I   I105      1.0  0.78904  0.21333  0.02814  1.0000
  I   I106      1.0  0.57936  0.95020  0.93319  1.0000
  I   I107      1.0  0.49515  0.96456  0.04927  1.0000
  I   I108      1.0  0.71117  0.86797  0.86496  1.0000
  I   I109      1.0  0.23873  0.01268  0.79517  1.0000
  I   I110      1.0  0.40146  0.11193  0.02756  1.0000
  I   I111      1.0  0.07438  0.38232  0.24617  1.0000
  I   I112      1.0  0.93350  0.44694  0.13736  1.0000
  I   I113      1.0  0.07058  0.93054  0.40414  1.0000
  I   I114      1.0  0.20249  0.60254  0.06909  1.0000
  I   I115      1.0  0.71080  0.64444  0.26938  1.0000
  I   I116      1.0  0.64613  0.68183  0.20204  1.0000
  I   I117      1.0  0.67009  0.90693  0.22805  1.0000
  I   I118      1.0  0.53359  0.92878  0.45308  1.0000
  I   I119      1.0  0.45963  0.93763  0.43933  1.0000
  I   I120      1.0  0.54337  0.75528  0.80980  1.0000
  I   I121      1.0  0.41151  0.49439  0.39530  1.0000
  I   I122      1.0  0.27125  0.26176  0.59593  1.0000
  I   I123      1.0  0.30622  0.34218  0.89815  1.0000
  I   I124      1.0  0.79941  0.57241  0.57874  1.0000
  I   I125      1.0  0.52873  0.69059  0.35970  1.0000
  I   I126      1.0  0.86003  0.40708  0.52049  1.0000
  I   I127      1.0  0.01849  0.10504  0.54252  1.0000
  I   I128      1.0  0.79139  0.35274  0.16743  1.0000
  I   I129      1.0  0.91519  0.09450  0.27732  1.0000
  I   I130      1.0  0.02591  0.49641  0.52708  1.0000
  I   I131      1.0  0.91357  0.76859  0.45041  1.0000
  I   I132      1.0  0.62105  0.52981  0.85355  1.0000
  I   I133      1.0  0.33198  0.03343  0.24752  1.0000
  I   I134      1.0  0.56461  0.29116  0.38286  1.0000
  I   I135      1.0  0.62745  0.28190  0.30792  1.0000
  I   I136      1.0  0.50189  0.65290  0.13669  1.0000
  I   I137      1.0  0.23985  0.73768  0.11243  1.0000
  I   I138      1.0  0.67063  0.42304  0.65187  1.0000
  I   I139      1.0  0.96636  0.40758  0.85431  1.0000
  I   I140      1.0  0.92210  0.07345  0.78750  1.0000
  I   I141      1.0  0.97591  0.54672  0.20166  1.0000
  I   I142      1.0  0.46993  0.55304  0.06541  1.0000
  I   I143      1.0  0.73507  0.11515  0.43526  1.0000
  I   I144      1.0  0.44646  0.33712  0.70925  1.0000
  I   I145      1.0  0.89359  0.75463  0.75430  1.0000
  I   I146      1.0  0.75422  0.95406  0.18318  1.0000
  I   I147      1.0  0.86933  0.69033  0.67954  1.0000
  I   I148      1.0  0.40796  0.18676  0.37497  1.0000
  I   I149      1.0  0.10493  0.79935  0.12991  1.0000
  I   I150      1.0  0.11584  0.07787  0.31448  1.0000
  I   I151      1.0  0.99934  0.76111  0.84764  1.0000
  I   I152      1.0  0.18452  0.77528  0.58862  1.0000
  I   I153      1.0  0.82237  0.13558  0.00895  1.0000
  I   I154      1.0  0.10677  0.94675  0.75727  1.0000
  I   I155      1.0  0.11389  0.50520  0.90625  1.0000
  I   I156      1.0  0.61401  0.91914  0.05543  1.0000
  I   I157      1.0  0.24505  0.04870  0.67584  1.0000
  I   I158      1.0  0.07479  0.42539  0.31893  1.0000
  I   I159      1.0  0.32634  0.99575  0.69728  1.0000
  I   I160      1.0  0.90746  0.41605  0.26733  1.0000
  I   I161      1.0  0.12691  0.61335  0.11336  1.0000
  I   I162      1.0  0.99596  0.43579  0.05054  1.0000
  I   I163      1.0  0.74226  0.69879  0.18888  1.0000
  I   I164      1.0  0.75617  0.81496  0.45304  1.0000
  I   I165      1.0  0.22696  0.48370  0.16368  1.0000
  I   I166      1.0  0.48505  0.94019  0.56058  1.0000
  I   I167      1.0  0.49879  0.82846  0.02844  1.0000
  I   I168      1.0  0.63003  0.89548  0.67435  1.0000
  I   I169      1.0  0.18860  0.21865  0.67460  1.0000
  I   I170      1.0  0.25061  0.20018  0.60041  1.0000
  I   I171      1.0  0.44766  0.48415  0.52302  1.0000
  I   I172      1.0  0.79333  0.60119  0.70241  1.0000
  I   I173      1.0  0.84377  0.34944  0.52552  1.0000
  I   I174      1.0  0.84837  0.47122  0.63831  1.0000
  I   I175      1.0  0.73317  0.41612  0.03173  1.0000
  I   I176      1.0  0.88734  0.09192  0.10974  1.0000
  I   I177      1.0  0.04923  0.13124  0.65583  1.0000
  I   I178      1.0  0.85915  0.74740  0.39876  1.0000
  I   I179      1.0  0.69646  0.58692  0.90348  1.0000
  I   I180      1.0  0.99432  0.44000  0.55590  1.0000
  I   I181      1.0  0.86251  0.26000  0.13367  1.0000
  I   I182      1.0  0.53764  0.34359  0.55717  1.0000
  I   I183      1.0  0.30791  0.02631  0.37784  1.0000
  I   I184      1.0  0.30906  0.71950  0.15574  1.0000
  I   I185      1.0  0.65694  0.38375  0.54762  1.0000
  I   I186      1.0  0.40036  0.79260  0.13031  1.0000
  I   I187      1.0  0.85236  0.07098  0.80583  1.0000
  I   I188      1.0  0.90533  0.60500  0.18037  1.0000
  I   I189      1.0  0.93025  0.38599  0.92904  1.0000
  I   I190      1.0  0.67110  0.03243  0.41333  1.0000
  I   I191      1.0  0.37155  0.34578  0.85293  1.0000
  I   I192      1.0  0.53420  0.43400  0.05395  1.0000
  I   I193      1.0  0.90207  0.69337  0.91969  1.0000
  I   I194      1.0  0.78783  0.00232  0.09996  1.0000
  I   I195      1.0  0.80698  0.67661  0.64145  1.0000
  I   I196      1.0  0.36852  0.28924  0.21478  1.0000
  I   I197      1.0  0.07538  0.90291  0.80187  1.0000
  I   I198      1.0  0.11970  0.13074  0.01005  1.0000
  I   I199      1.0  0.94769  0.88253  0.71961  1.0000
  I   I200      1.0  0.16854  0.73578  0.46970  1.0000
  I   I201      1.0  0.75174  0.14836  0.98832  1.0000
  I   I202      1.0  0.58089  0.96980  0.21213  1.0000
  I   I203      1.0  0.07083  0.56065  0.80938  1.0000
  I   I204      1.0  0.67348  0.94090  0.84058  1.0000
  I   I205      1.0  0.41044  0.24040  0.02778  1.0000
  I   I206      1.0  0.15091  0.35419  0.21072  1.0000
  I   I207      1.0  0.29494  0.02860  0.80909  1.0000
  I   I208      1.0  0.98012  0.97627  0.38389  1.0000
  I   I209      1.0  0.17181  0.62695  0.20760  1.0000
  I   I210      1.0  0.97077  0.38685  0.04121  1.0000
  I   I211      1.0  0.70589  0.70222  0.32325  1.0000
  I   I212      1.0  0.76933  0.80093  0.32242  1.0000
  I   I213      1.0  0.32115  0.36451  0.29997  1.0000
  I   I214      1.0  0.44754  0.90223  0.55497  1.0000
  I   I215      1.0  0.49123  0.93270  0.81904  1.0000
  I   I216      1.0  0.61484  0.95500  0.59971  1.0000
  I   I217      1.0  0.19269  0.28029  0.60136  1.0000
  I   I218      1.0  0.25131  0.36476  0.01016  1.0000
  I   I219      1.0  0.36972  0.48362  0.56938  1.0000
  I   I220      1.0  0.49791  0.72448  0.48305  1.0000
  I   I221      1.0  0.88006  0.37507  0.41163  1.0000
  I   I222      1.0  0.85577  0.50906  0.55561  1.0000
  I   I223      1.0  0.71617  0.42807  0.18638  1.0000
  I   I224      1.0  0.95510  0.99893  0.18182  1.0000
  I   I225      1.0  0.07168  0.13969  0.53090  1.0000
  I   I226      1.0  0.93297  0.74615  0.29408  1.0000
  I   I227      1.0  0.66901  0.63784  0.80700  1.0000
  I   I228      1.0  0.98166  0.56124  0.61017  1.0000
  I   I229      1.0  0.88666  0.31267  0.11842  1.0000
  I   I230      1.0  0.62532  0.23450  0.41288  1.0000
  I   I231      1.0  0.37819  0.10254  0.43591  1.0000
  I   I232      1.0  0.34916  0.66208  0.07548  1.0000
  I   I233      1.0  0.59572  0.44464  0.63264  1.0000
  I   I234      1.0  0.47045  0.77616  0.09263  1.0000
  I   I235      1.0  0.96662  0.94785  0.79411  1.0000
  I   I236      1.0  0.89529  0.58807  0.05857  1.0000
  I   I237      1.0  0.90284  0.46460  0.81885  1.0000
  I   I238      1.0  0.69383  0.06288  0.50851  1.0000
  I   I239      1.0  0.34469  0.38308  0.70036  1.0000
  I   I240      1.0  0.54729  0.56136  0.06032  1.0000
  I   I241      1.0  0.86896  0.76702  0.95388  1.0000
  I   I242      1.0  0.71975  0.02445  0.16987  1.0000
  I   I243      1.0  0.86102  0.64056  0.55193  1.0000
  I   I244      1.0  0.28640  0.30347  0.26728  1.0000
  I   I245      1.0  0.09657  0.91156  0.98944  1.0000
  I   I246      1.0  0.15096  0.11835  0.26913  1.0000
  I   I247      1.0  0.01311  0.85390  0.82712  1.0000
  I   I248      1.0  0.19726  0.83208  0.56280  1.0000
  I   I249      1.0  0.79238  0.16657  0.88917  1.0000
  I   I250      1.0  0.44884  0.98891  0.17701  1.0000
  I   I251      1.0  0.11548  0.58366  0.89861  1.0000
  I   I252      1.0  0.64283  0.95798  0.95990  1.0000
  I   I253      1.0  0.33686  0.24148  0.02825  1.0000
  I   I254      1.0  0.14569  0.41687  0.14988  1.0000
  I   I255      1.0  0.27981  0.96898  0.70349  1.0000
  I   I256      1.0  0.07607  0.83691  0.30900  1.0000
  I   I257      1.0  0.14338  0.67312  0.06581  1.0000
  I   I258      1.0  0.97569  0.39821  0.30876  1.0000
  I   I259      1.0  0.78631  0.61934  0.21860  1.0000
  I   I260      1.0  0.72214  0.87599  0.39093  1.0000
  I   I261      1.0  0.20829  0.45087  0.28036  1.0000
  I   I262      1.0  0.50125  0.86714  0.42709  1.0000
  I   I263      1.0  0.51588  0.86474  0.85793  1.0000
  I   I264      1.0  0.56713  0.95705  0.70787  1.0000
  I   I265      1.0  0.15421  0.23388  0.54459  1.0000
  I   I266      1.0  0.23001  0.30157  0.78178  1.0000
  I   I267      1.0  0.40551  0.43585  0.46855  1.0000
  I   I268      1.0  0.55399  0.72220  0.58741  1.0000
  I   I269      1.0  0.81520  0.37197  0.38933  1.0000
  I   I270      1.0  0.86043  0.53811  0.67389  1.0000
  I   I271      1.0  0.76076  0.33349  0.26967  1.0000
  I   I272      1.0  0.92389  0.02180  0.05850  1.0000
  I   I273      1.0  0.09409  0.07075  0.51016  1.0000
  I   I274      1.0  0.87158  0.79928  0.32539  1.0000
  I   I275      1.0  0.60220  0.56902  0.74525  1.0000
  I   I276      1.0  0.95840  0.50322  0.47300  1.0000
  I   I277      1.0  0.93380  0.26985  0.21690  1.0000
  I   I278      1.0  0.67123  0.26375  0.42290  1.0000
  I   I279      1.0  0.39240  0.02177  0.50886  1.0000
  I   I280      1.0  0.22108  0.73085  0.98108  1.0000
  I   I281      1.0  0.65713  0.49973  0.43974  1.0000
  I   I282      1.0  0.44275  0.71162  0.07221  1.0000
  I   I283      1.0  0.01542  0.98324  0.82345  1.0000
  I   I284      1.0  0.91865  0.52888  0.17240  1.0000
  I   I285      1.0  0.92894  0.45556  0.95416  1.0000
  I   I286      1.0  0.75267  0.04909  0.43855  1.0000
  I   I287      1.0  0.44476  0.33049  0.84273  1.0000
  I   I288      1.0  0.51034  0.55261  0.18221  1.0000
  I   I289      1.0  0.84864  0.72810  0.86547  1.0000
  I   I290      1.0  0.84091  0.94030  0.95136  1.0000
  I   I291      1.0  0.74921  0.08043  0.08790  1.0000
  I   I292      1.0  0.42636  0.21994  0.27326  1.0000
  I   I293      1.0  0.14069  0.81420  0.21034  1.0000
  I   I294      1.0  0.09162  0.11963  0.19726  1.0000
  I   I295      1.0  0.98400  0.81035  0.75567  1.0000
  I   I296      1.0  0.26474  0.76553  0.58543  1.0000
  I   I297      1.0  0.75294  0.25309  0.13853  1.0000
  I   I298      1.0  0.09617  0.92669  0.62053  1.0000
  I   I299      1.0  0.52398  0.02513  0.28746  1.0000
  I   I300      1.0  0.71864  0.91997  0.94874  1.0000
  I   I301      1.0  0.32113  0.95669  0.82389  1.0000
  I   I302      1.0  0.36900  0.24174  0.90966  1.0000
  I   I303      1.0  0.09682  0.40115  0.09262  1.0000
  I   I304      1.0  0.99687  0.42482  0.19612  1.0000
  I   I305      1.0  0.03510  0.92770  0.28851  1.0000
  I   I306      1.0  0.22960  0.64451  0.68086  1.0000
  I   I307      1.0  0.77784  0.67638  0.30880  1.0000
  I   I308      1.0  0.67956  0.86252  0.33031  1.0000
  I   I309      1.0  0.35732  0.39302  0.22923  1.0000
  I   I310      1.0  0.55660  0.90451  0.63966  1.0000
  I   I311      1.0  0.46983  0.85848  0.91258  1.0000
  I   I312      1.0  0.47267  0.77631  0.88107  1.0000
  I   I313      1.0  0.38098  0.53932  0.64770  1.0000
  I   I314      1.0  0.21455  0.30391  0.50012  1.0000
  I   I315      1.0  0.20122  0.37519  0.91774  1.0000
  I   I316      1.0  0.80667  0.52653  0.72601  1.0000
  I   I317      1.0  0.54821  0.74090  0.40047  1.0000
  I   I318      1.0  0.81747  0.43824  0.35263  1.0000
  I   I319      1.0  0.06703  0.05624  0.63669  1.0000
  I   I320      1.0  0.72392  0.36512  0.15891  1.0000
  I   I321      1.0  0.95167  0.06584  0.17635  1.0000
  I   I322      1.0  0.90016  0.79053  0.18976  1.0000
  I   I323      1.0  0.55369  0.58721  0.87643  1.0000
  I   I324      1.0  0.04567  0.51994  0.70242  1.0000
  I   I325      1.0  0.89569  0.26244  0.01612  1.0000
  I   I326      1.0  0.59423  0.31520  0.47113  1.0000
  I   I327      1.0  0.43760  0.03685  0.41969  1.0000
  I   I328      1.0  0.21814  0.67955  0.06893  1.0000
  I   I329      1.0  0.66430  0.44863  0.52929  1.0000
  I   I330      1.0  0.50291  0.71011  0.13008  1.0000
  I   I331      1.0  0.88081  0.41602  0.79393  1.0000
  I   I332      1.0  0.01098  0.92652  0.89528  1.0000
  I   I333      1.0  0.96112  0.63588  0.13030  1.0000
  I   I334      1.0  0.51944  0.48292  0.15500  1.0000
  I   I335      1.0  0.62502  0.08525  0.33969  1.0000
  I   I336      1.0  0.40486  0.40038  0.65451  1.0000
  I   I337      1.0  0.92609  0.68470  0.78047  1.0000
  I   I338      1.0  0.81136  0.01180  0.97125  1.0000
  I   I339      1.0  0.68867  0.09181  0.16881  1.0000
  I   I340      1.0  0.40628  0.16872  0.23767  1.0000
  I   I341      1.0  0.16313  0.86419  0.05941  1.0000
  I   I342      1.0  0.15312  0.09626  0.13206  1.0000
  I   I343      1.0  0.99774  0.81419  0.93964  1.0000
  I   I344      1.0  0.24161  0.73996  0.48176  1.0000
  I   I345      1.0  0.69186  0.26537  0.07739  1.0000
  I   I346      1.0  0.13132  0.87545  0.71568  1.0000
  I   I347      1.0  0.55633  0.04442  0.18822  1.0000
  I   I348      1.0  0.67741  0.88317  0.99194  1.0000
  I   I349      1.0  0.29280  0.01139  0.94223  1.0000
  I   I350      1.0  0.43031  0.18011  0.94675  1.0000
  I   I351      1.0  0.13861  0.41572  0.28573  1.0000
  I   I352      1.0  0.98395  0.37231  0.18310  1.0000
  I   I353      1.0  0.05539  0.87689  0.42898  1.0000
  I   I354      1.0  0.30804  0.60251  0.69392  1.0000
  I   I355      1.0  0.64246  0.68538  0.35054  1.0000
  I   I356      1.0  0.66538  0.93986  0.34353  1.0000
  I   I357      1.0  0.28890  0.46854  0.26229  1.0000
  I   I358      1.0  0.58549  0.92016  0.54223  1.0000
  I   I359      1.0  0.43084  0.95292  0.89354  1.0000
  I   I360      1.0  0.49732  0.72279  0.78441  1.0000
  I   I361      1.0  0.43864  0.45813  0.63756  1.0000
  I   I362      1.0  0.27580  0.23620  0.47277  1.0000
  I   I363      1.0  0.17456  0.33278  0.85610  1.0000
  I   I364      1.0  0.73019  0.58286  0.68608  1.0000
  I   I365      1.0  0.52608  0.67784  0.63394  1.0000
  I   I366      1.0  0.88971  0.43477  0.39992  1.0000
  I   I367      1.0  0.14764  0.01637  0.57301  1.0000
  I   I368      1.0  0.67584  0.39337  0.05800  1.0000
  I   I369      1.0  0.85672  0.15465  0.21164  1.0000
  I   I370      1.0  0.93401  0.69683  0.38867  1.0000
  I   I371      1.0  0.63211  0.58230  0.91055  1.0000
  I   I372      1.0  0.95382  0.51647  0.62282  1.0000
  I   I373      1.0  0.95516  0.25461  0.09122  1.0000
  I   I374      1.0  0.53083  0.28476  0.50042  1.0000
  I   I375      1.0  0.33432  0.06756  0.43025  1.0000
  I   I376      1.0  0.29101  0.66397  0.13534  1.0000
  I   I377      1.0  0.60289  0.50286  0.39231  1.0000
  I   I378      1.0  0.46080  0.75195  0.21629  1.0000
  I   I379      1.0  0.94591  0.35359  0.78708  1.0000
  I   I380      1.0  0.84766  0.12324  0.70668  1.0000
  I   I381      1.0  0.97083  0.56619  0.07201  1.0000
  I   I382      1.0  0.58972  0.42870  0.13547  1.0000
  I   I383      1.0  0.65243  0.13229  0.44680  1.0000
  I   I384      1.0  0.38776  0.39696  0.78043  1.0000
