data_image0
_chemical_formula_structural       Ti96I384
_chemical_formula_sum              "Ti96 I384"
_cell_length_a       75.0453
_cell_length_b       74.976
_cell_length_c       36.7225
_cell_angle_alpha    88.7757
_cell_angle_beta     88.7757
_cell_angle_gamma    62.1586

_space_group_name_H-M_alt    "P 1"
_space_group_IT_number       1

loop_
  _space_group_symop_operation_xyz
  'x, y, z'

loop_
  _atom_site_type_symbol
  _atom_site_label
  _atom_site_symmetry_multiplicity
  _atom_site_fract_x
  _atom_site_fract_y
  _atom_site_fract_z
  _atom_site_occupancy
  Ti  Ti1       1.0  0.75875  0.19454  0.85991  1.0000
  Ti  Ti2       1.0  0.47144  0.69924  0.53836  1.0000
  Ti  Ti3       1.0  0.11826  0.97020  0.35329  1.0000
  Ti  Ti4       1.0  0.12095  0.24131  0.07547  1.0000
  Ti  Ti5       1.0  0.22561  0.06188  0.83757  1.0000
  Ti  Ti6       1.0  0.44462  0.37333  0.27187  1.0000
  Ti  Ti7       1.0  0.68969  0.10286  0.03947  1.0000
  Ti  Ti8       1.0  0.30829  0.74212  0.17780  1.0000
  Ti  Ti9       1.0  0.17189  0.42867  0.63787  1.0000
  Ti  Ti10      1.0  0.60011  0.77739  0.36158  1.0000
  Ti  Ti11      1.0  0.32282  0.03345  0.67355  1.0000
  Ti  Ti12      1.0  0.97598  0.14462  0.43033  1.0000
  Ti  Ti13      1.0  0.74585  0.70813  0.42900  1.0000
  Ti  Ti14      1.0  0.12834  0.27696  0.13264  1.0000
  Ti  Ti15      1.0  0.84393  0.48573  0.65901  1.0000
  Ti  Ti16      1.0  0.21701  0.54108  0.38245  1.0000
  Ti  Ti17      1.0  0.09395  0.95563  0.51724  1.0000
  Ti  Ti18      1.0  0.30394  0.16781  0.25957  1.0000
  Ti  Ti19      1.0  0.89021  0.07919  0.82985  1.0000
  Ti  Ti20      1.0  0.15892  0.50254  0.01849  1.0000
  Ti  Ti21      1.0  0.28239  0.73625  0.12365  1.0000
  Ti  Ti22      1.0  0.80017  0.35735  0.70824  1.0000
  Ti  Ti23      1.0  0.16252  0.71892  0.76767  1.0000
  Ti  Ti24      1.0  0.74231  0.31707  0.27639  1.0000
  Ti  Ti25      1.0  0.71438  0.55106  0.40789  1.0000
  Ti  Ti26      1.0  0.88869  0.93443  0.86498  1.0000
  Ti  Ti27      1.0  0.45777  0.54549  0.04383  1.0000
  Ti  Ti28      1.0  0.45336  0.11288  0.78393  1.0000
  Ti  Ti29      1.0  0.31221  0.93679  0.30192  1.0000
  Ti  Ti30      1.0  0.34003  0.88155  0.00816  1.0000
  Ti  Ti31      1.0  0.49794  0.50035  0.30310  1.0000
  Ti  Ti32      1.0  0.56076  0.73897  0.15202  1.0000
  Ti  Ti33      1.0  0.52680  0.42103  0.54985  1.0000
  Ti  Ti34      1.0  0.78437  0.61557  0.04703  1.0000
  Ti  Ti35      1.0  0.74587  0.72158  0.12052  1.0000
  Ti  Ti36      1.0  0.36042  0.23900  0.54238  1.0000
  Ti  Ti37      1.0  0.91148  0.57279  0.60225  1.0000
  Ti  Ti38      1.0  0.20378  0.39621  0.17986  1.0000
  Ti  Ti39      1.0  0.90421  0.39179  0.85037  1.0000
  Ti  Ti40      1.0  0.64685  0.73659  0.37300  1.0000
  Ti  Ti41      1.0  0.90603  0.54491  0.45085  1.0000
  Ti  Ti42      1.0  0.92717  0.64097  0.24564  1.0000
  Ti  Ti43      1.0  0.02168  0.85585  0.64770  1.0000
  Ti  Ti44      1.0  0.89931  0.35978  0.27924  1.0000
  Ti  Ti45      1.0  0.45591  0.13604  0.17726  1.0000
  Ti  Ti46      1.0  0.72318  0.97350  0.04741  1.0000
  Ti  Ti47      1.0  0.12101  0.88917  0.82975  1.0000
  Ti  Ti48      1.0  0.00054  0.11959  0.75578  1.0000
  Ti  Ti49      1.0  0.00462  0.90407  0.59700  1.0000
  Ti  Ti50      1.0  0.10442  0.18003  0.38604  1.0000
  Ti  Ti51      1.0  0.45546  0.65432  0.53596  1.0000
  Ti  Ti52      1.0  0.58378  0.43554  0.79452  1.0000
  Ti  Ti53      1.0  0.19337  0.82089  0.65386  1.0000
  Ti  Ti54      1.0  0.42618  0.92086  0.27727  1.0000
  Ti  Ti55      1.0  0.51795  0.76278  0.06770  1.0000
  Ti  Ti56      1.0  0.61436  0.86159  0.06545  1.0000
  Ti  Ti57      1.0  0.20517  0.41998  0.58218  1.0000
  Ti  Ti58      1.0  0.35213  0.91855  0.55079  1.0000
  Ti  Ti59      1.0  0.49487  0.50645  0.69920  1.0000
  Ti  Ti60      1.0  0.96811  0.11474  0.53454  1.0000
  Ti  Ti61      1.0  0.75741  0.78671  0.82495  1.0000
  Ti  Ti62      1.0  0.72053  0.77134  0.44299  1.0000
  Ti  Ti63      1.0  0.12351  0.56726  0.01876  1.0000
  Ti  Ti64      1.0  0.30574  0.11821  0.26565  1.0000
  Ti  Ti65      1.0  0.04770  0.87423  0.15196  1.0000
  Ti  Ti66      1.0  0.36421  0.22817  0.30269  1.0000
  Ti  Ti67      1.0  0.17358  0.16995  0.34202  1.0000
  Ti  Ti68      1.0  0.45026  0.28660  0.24631  1.0000
  Ti  Ti69      1.0  0.90705  0.89079  0.92000  1.0000
  Ti  Ti70      1.0  0.20134  0.14609  0.27839  1.0000
  Ti  Ti71      1.0  0.90353  0.74490  0.12441  1.0000
  Ti  Ti72      1.0  0.15981  0.90370  0.77872  1.0000
  Ti  Ti73      1.0  0.45101  0.49980  0.06726  1.0000
  Ti  Ti74      1.0  0.75306  0.50506  0.41304  1.0000
  Ti  Ti75      1.0  0.42862  0.17701  0.97281  1.0000
  Ti  Ti76      1.0  0.40367  0.11905  0.72462  1.0000
  Ti  Ti77      1.0  0.80840  0.48293  0.63873  1.0000
  Ti  Ti78      1.0  0.26193  0.93941  0.27508  1.0000
  Ti  Ti79      1.0  0.33431  0.80684  0.69610  1.0000
  Ti  Ti80      1.0  0.34496  0.97821  0.00596  1.0000
  Ti  Ti81      1.0  0.85966  0.62115  0.85755  1.0000
  Ti  Ti82      1.0  0.74447  0.39507  0.38422  1.0000
  Ti  Ti83      1.0  0.04238  0.43717  0.67629  1.0000
  Ti  Ti84      1.0  0.39877  0.19424  0.58306  1.0000
  Ti  Ti85      1.0  0.92884  0.53818  0.66872  1.0000
  Ti  Ti86      1.0  0.66599  0.10305  0.94366  1.0000
  Ti  Ti87      1.0  0.44053  0.13546  0.10129  1.0000
  Ti  Ti88      1.0  0.53234  0.14671  0.58243  1.0000
  Ti  Ti89      1.0  0.28729  0.47443  0.11139  1.0000
  Ti  Ti90      1.0  0.07837  0.47697  0.08156  1.0000
  Ti  Ti91      1.0  0.15023  0.87327  0.26712  1.0000
  Ti  Ti92      1.0  0.78206  0.21521  0.52453  1.0000
  Ti  Ti93      1.0  0.64448  0.42427  0.47050  1.0000
  Ti  Ti94      1.0  0.00214  0.08306  0.73283  1.0000
  Ti  Ti95      1.0  0.95110  0.34886  0.55804  1.0000
  Ti  Ti96      1.0  0.81937  0.32141  0.74618  1.0000
  I   I1        1.0  0.18628  0.87258  0.82560  1.0000
  I   I2        1.0  0.45930  0.73428  0.49674  1.0000
  I   I3        1.0  0.98239  0.94489  0.61081  1.0000
  I   I4        1.0  0.22108  0.83174  0.63766  1.0000
  I   I5        1.0  0.43163  0.40443  0.31514  1.0000
  I   I6        1.0  0.43295  0.88185  0.28547  1.0000
  I   I7        1.0  0.31410  0.77363  0.16005  1.0000
  I   I8        1.0  0.59622  0.84484  0.09950  1.0000
  I   I9        1.0  0.16356  0.43296  0.55837  1.0000
  I   I10       1.0  0.56442  0.78315  0.35329  1.0000
  I   I11       1.0  0.31240  0.04199  0.74083  1.0000
  I   I12       1.0  0.19562  0.08882  0.79767  1.0000
  I   I13       1.0  0.72022  0.75632  0.51450  1.0000
  I   I14       1.0  0.13965  0.53456  0.08020  1.0000
  I   I15       1.0  0.78931  0.52335  0.61029  1.0000
  I   I16       1.0  0.58186  0.81458  0.38824  1.0000
  I   I17       1.0  0.37507  0.25479  0.27472  1.0000
  I   I18       1.0  0.27207  0.15843  0.26925  1.0000
  I   I19       1.0  0.19611  0.49649  0.99832  1.0000
  I   I20       1.0  0.31951  0.06970  0.65631  1.0000
  I   I21       1.0  0.28354  0.76639  0.22009  1.0000
  I   I22       1.0  0.16836  0.69063  0.72277  1.0000
  I   I23       1.0  0.88617  0.76727  0.06338  1.0000
  I   I24       1.0  0.19327  0.14508  0.39079  1.0000
  I   I25       1.0  0.71097  0.58921  0.37983  1.0000
  I   I26       1.0  0.41633  0.21010  0.93590  1.0000
  I   I27       1.0  0.43829  0.52996  0.00423  1.0000
  I   I28       1.0  0.47651  0.11512  0.73120  1.0000
  I   I29       1.0  0.23984  0.97742  0.27964  1.0000
  I   I30       1.0  0.37645  0.87062  0.97907  1.0000
  I   I31       1.0  0.35631  0.98601  0.06697  1.0000
  I   I32       1.0  0.89458  0.59245  0.88691  1.0000
  I   I33       1.0  0.30201  0.80682  0.73455  1.0000
  I   I34       1.0  0.73488  0.71499  0.05885  1.0000
  I   I35       1.0  0.40784  0.19078  0.65603  1.0000
  I   I36       1.0  0.75981  0.60063  0.06341  1.0000
  I   I37       1.0  0.93673  0.53722  0.58726  1.0000
  I   I38       1.0  0.88376  0.37111  0.85573  1.0000
  I   I39       1.0  0.93665  0.49714  0.66407  1.0000
  I   I40       1.0  0.93379  0.36218  0.28767  1.0000
  I   I41       1.0  0.10808  0.45191  0.04154  1.0000
  I   I42       1.0  0.66471  0.72140  0.44252  1.0000
  I   I43       1.0  0.32273  0.91073  0.55083  1.0000
  I   I44       1.0  0.88820  0.35774  0.21328  1.0000
  I   I45       1.0  0.46429  0.14625  0.23986  1.0000
  I   I46       1.0  0.98155  0.34933  0.52694  1.0000
  I   I47       1.0  0.13730  0.84961  0.82003  1.0000
  I   I48       1.0  0.03254  0.09101  0.71631  1.0000
  I   I49       1.0  0.05658  0.84507  0.62899  1.0000
  I   I50       1.0  0.44688  0.68837  0.48808  1.0000
  I   I51       1.0  0.50093  0.67045  0.50467  1.0000
  I   I52       1.0  0.31069  0.00883  0.99259  1.0000
  I   I53       1.0  0.20267  0.79446  0.60308  1.0000
  I   I54       1.0  0.40990  0.93030  0.34406  1.0000
  I   I55       1.0  0.69760  0.10741  0.95014  1.0000
  I   I56       1.0  0.27917  0.75670  0.05993  1.0000
  I   I57       1.0  0.92085  0.37122  0.51150  1.0000
  I   I58       1.0  0.63721  0.76942  0.41428  1.0000
  I   I59       1.0  0.47943  0.49273  0.64495  1.0000
  I   I60       1.0  0.97946  0.13477  0.56955  1.0000
  I   I61       1.0  0.74045  0.70624  0.35928  1.0000
  I   I62       1.0  0.68206  0.79907  0.45854  1.0000
  I   I63       1.0  0.10438  0.58692  0.07338  1.0000
  I   I64       1.0  0.25118  0.51079  0.36308  1.0000
  I   I65       1.0  0.06801  0.85793  0.09130  1.0000
  I   I66       1.0  0.34498  0.21932  0.25055  1.0000
  I   I67       1.0  0.86271  0.08397  0.87441  1.0000
  I   I68       1.0  0.16906  0.47152  0.05746  1.0000
  I   I69       1.0  0.92501  0.85357  0.90309  1.0000
  I   I70       1.0  0.16659  0.18406  0.26378  1.0000
  I   I71       1.0  0.20283  0.70811  0.76776  1.0000
  I   I72       1.0  0.13435  0.89088  0.75952  1.0000
  I   I73       1.0  0.45910  0.53727  0.11614  1.0000
  I   I74       1.0  0.90146  0.95189  0.81993  1.0000
  I   I75       1.0  0.88605  0.92017  0.79936  1.0000
  I   I76       1.0  0.79167  0.46090  0.67563  1.0000
  I   I77       1.0  0.87908  0.47490  0.68195  1.0000
  I   I78       1.0  0.74098  0.17127  0.86107  1.0000
  I   I79       1.0  0.51489  0.45054  0.59590  1.0000
  I   I80       1.0  0.49803  0.53667  0.30458  1.0000
  I   I81       1.0  0.55156  0.74603  0.22245  1.0000
  I   I82       1.0  0.72153  0.39815  0.32669  1.0000
  I   I83       1.0  0.03880  0.47041  0.65047  1.0000
  I   I84       1.0  0.40944  0.15674  0.58363  1.0000
  I   I85       1.0  0.92667  0.57863  0.68314  1.0000
  I   I86       1.0  0.38963  0.21765  0.35526  1.0000
  I   I87       1.0  0.91758  0.38473  0.78170  1.0000
  I   I88       1.0  0.64745  0.70778  0.33276  1.0000
  I   I89       1.0  0.87548  0.53524  0.45570  1.0000
  I   I90       1.0  0.08754  0.46681  0.14915  1.0000
  I   I91       1.0  0.18465  0.84734  0.23381  1.0000
  I   I92       1.0  0.74179  0.23370  0.53229  1.0000
  I   I93       1.0  0.87399  0.39634  0.30408  1.0000
  I   I94       1.0  0.97748  0.11694  0.68783  1.0000
  I   I95       1.0  0.71943  0.94847  0.00452  1.0000
  I   I96       1.0  0.83294  0.35173  0.75302  1.0000
  I   I97       1.0  0.15142  0.93493  0.37702  1.0000
  I   I98       1.0  0.73733  0.22001  0.80679  1.0000
  I   I99       1.0  0.46540  0.62665  0.49291  1.0000
  I   I100      1.0  0.13706  0.20585  0.03589  1.0000
  I   I101      1.0  0.50761  0.17799  0.62069  1.0000
  I   I102      1.0  0.26206  0.05227  0.82488  1.0000
  I   I103      1.0  0.64979  0.11741  0.01659  1.0000
  I   I104      1.0  0.59795  0.71750  0.14460  1.0000
  I   I105      1.0  0.21465  0.39797  0.64617  1.0000
  I   I106      1.0  0.97830  0.12163  0.37855  1.0000
  I   I107      1.0  0.61470  0.77174  0.29417  1.0000
  I   I108      1.0  0.98691  0.15799  0.49640  1.0000
  I   I109      1.0  0.84918  0.48528  0.58978  1.0000
  I   I110      1.0  0.78484  0.67700  0.42242  1.0000
  I   I111      1.0  0.13847  0.58846  0.97998  1.0000
  I   I112      1.0  0.30687  0.13309  0.19882  1.0000
  I   I113      1.0  0.03260  0.91216  0.12605  1.0000
  I   I114      1.0  0.05678  0.97812  0.51928  1.0000
  I   I115      1.0  0.16698  0.19477  0.39204  1.0000
  I   I116      1.0  0.20245  0.18018  0.30912  1.0000
  I   I117      1.0  0.42689  0.32333  0.22916  1.0000
  I   I118      1.0  0.79019  0.39646  0.71291  1.0000
  I   I119      1.0  0.17984  0.13140  0.29419  1.0000
  I   I120      1.0  0.17711  0.91319  0.72785  1.0000
  I   I121      1.0  0.45653  0.47190  0.01818  1.0000
  I   I122      1.0  0.73156  0.52662  0.34917  1.0000
  I   I123      1.0  0.46822  0.16531  0.97136  1.0000
  I   I124      1.0  0.30947  0.91382  0.03202  1.0000
  I   I125      1.0  0.36624  0.13258  0.75880  1.0000
  I   I126      1.0  0.24368  0.93069  0.33396  1.0000
  I   I127      1.0  0.54205  0.39499  0.60519  1.0000
  I   I128      1.0  0.12697  0.23505  0.15897  1.0000
  I   I129      1.0  0.86336  0.65298  0.82561  1.0000
  I   I130      1.0  0.38315  0.24328  0.58702  1.0000
  I   I131      1.0  0.74835  0.39433  0.45797  1.0000
  I   I132      1.0  0.76474  0.74206  0.10304  1.0000
  I   I133      1.0  0.93577  0.38105  0.88716  1.0000
  I   I134      1.0  0.19439  0.42985  0.15373  1.0000
  I   I135      1.0  0.32935  0.25103  0.33401  1.0000
  I   I136      1.0  0.96570  0.62271  0.26190  1.0000
  I   I137      1.0  0.54722  0.43505  0.79441  1.0000
  I   I138      1.0  0.31601  0.45920  0.16072  1.0000
  I   I139      1.0  0.15840  0.90338  0.27193  1.0000
  I   I140      1.0  0.79919  0.23240  0.48531  1.0000
  I   I141      1.0  0.61813  0.43406  0.51988  1.0000
  I   I142      1.0  0.02079  0.05512  0.78139  1.0000
  I   I143      1.0  0.11074  0.94390  0.32399  1.0000
  I   I144      1.0  0.81033  0.30004  0.70251  1.0000
  I   I145      1.0  0.79632  0.17611  0.89672  1.0000
  I   I146      1.0  0.48480  0.71124  0.58943  1.0000
  I   I147      1.0  0.13636  0.97331  0.42866  1.0000
  I   I148      1.0  0.58518  0.45149  0.73512  1.0000
  I   I149      1.0  0.22072  0.03002  0.82980  1.0000
  I   I150      1.0  0.48088  0.36992  0.25924  1.0000
  I   I151      1.0  0.56359  0.77287  0.13685  1.0000
  I   I152      1.0  0.33815  0.71865  0.22095  1.0000
  I   I153      1.0  0.18602  0.46077  0.61210  1.0000
  I   I154      1.0  0.01559  0.89048  0.68181  1.0000
  I   I155      1.0  0.32357  0.00215  0.64780  1.0000
  I   I156      1.0  0.00449  0.10617  0.46589  1.0000
  I   I157      1.0  0.84310  0.44952  0.66008  1.0000
  I   I158      1.0  0.09593  0.56028  0.00058  1.0000
  I   I159      1.0  0.77129  0.74631  0.80781  1.0000
  I   I160      1.0  0.29482  0.09158  0.25508  1.0000
  I   I161      1.0  0.10509  0.94382  0.44041  1.0000
  I   I162      1.0  0.30003  0.12123  0.33228  1.0000
  I   I163      1.0  0.88789  0.05463  0.78275  1.0000
  I   I164      1.0  0.48000  0.26727  0.20592  1.0000
  I   I165      1.0  0.32471  0.72526  0.09875  1.0000
  I   I166      1.0  0.85588  0.28798  0.74500  1.0000
  I   I167      1.0  0.16292  0.70232  0.83014  1.0000
  I   I168      1.0  0.72216  0.34578  0.23283  1.0000
  I   I169      1.0  0.71405  0.50736  0.42513  1.0000
  I   I170      1.0  0.77286  0.47447  0.37282  1.0000
  I   I171      1.0  0.47432  0.55912  0.99440  1.0000
  I   I172      1.0  0.44598  0.09229  0.73185  1.0000
  I   I173      1.0  0.25322  0.93121  0.21111  1.0000
  I   I174      1.0  0.31665  0.87648  0.96128  1.0000
  I   I175      1.0  0.46812  0.49790  0.26270  1.0000
  I   I176      1.0  0.52968  0.73203  0.12779  1.0000
  I   I177      1.0  0.33264  0.82524  0.76273  1.0000
  I   I178      1.0  0.75183  0.42725  0.37531  1.0000
  I   I179      1.0  0.05397  0.44075  0.74108  1.0000
  I   I180      1.0  0.39195  0.20390  0.50788  1.0000
  I   I181      1.0  0.96538  0.51933  0.69134  1.0000
  I   I182      1.0  0.68927  0.07459  0.08374  1.0000
  I   I183      1.0  0.48098  0.11944  0.10967  1.0000
  I   I184      1.0  0.56212  0.15621  0.57009  1.0000
  I   I185      1.0  0.25999  0.48941  0.16123  1.0000
  I   I186      1.0  0.90074  0.67087  0.20271  1.0000
  I   I187      1.0  0.79422  0.20397  0.58754  1.0000
  I   I188      1.0  0.90573  0.33176  0.32680  1.0000
  I   I189      1.0  0.44919  0.17121  0.12810  1.0000
  I   I190      1.0  0.68229  0.99611  0.05025  1.0000
  I   I191      1.0  0.07130  0.17815  0.40970  1.0000
  I   I192      1.0  0.11638  0.99989  0.30660  1.0000
  I   I193      1.0  0.33820  0.94860  0.27591  1.0000
  I   I194      1.0  0.12494  0.14344  0.36865  1.0000
  I   I195      1.0  0.08318  0.99484  0.38862  1.0000
  I   I196      1.0  0.11694  0.25104  0.00347  1.0000
  I   I197      1.0  0.33955  0.94981  0.51240  1.0000
  I   I198      1.0  0.43816  0.34603  0.31032  1.0000
  I   I199      1.0  0.56321  0.73044  0.06711  1.0000
  I   I200      1.0  0.64703  0.83954  0.03121  1.0000
  I   I201      1.0  0.14126  0.46372  0.65706  1.0000
  I   I202      1.0  0.51791  0.51573  0.73454  1.0000
  I   I203      1.0  0.89462  0.93477  0.95145  1.0000
  I   I204      1.0  0.94857  0.18304  0.41657  1.0000
  I   I205      1.0  0.75821  0.73740  0.43225  1.0000
  I   I206      1.0  0.15743  0.27440  0.18309  1.0000
  I   I207      1.0  0.79985  0.47072  0.57357  1.0000
  I   I208      1.0  0.22687  0.56695  0.41045  1.0000
  I   I209      1.0  0.10407  0.93238  0.57602  1.0000
  I   I210      1.0  0.34174  0.83017  0.65626  1.0000
  I   I211      1.0  0.21190  0.13222  0.21504  1.0000
  I   I212      1.0  0.12573  0.50257  0.99593  1.0000
  I   I213      1.0  0.89228  0.89221  0.98172  1.0000
  I   I214      1.0  0.76783  0.36735  0.66943  1.0000
  I   I215      1.0  0.15297  0.75400  0.73614  1.0000
  I   I216      1.0  0.66563  0.39779  0.42337  1.0000
  I   I217      1.0  0.67690  0.56716  0.40937  1.0000
  I   I218      1.0  0.41560  0.15643  0.93484  1.0000
  I   I219      1.0  0.41780  0.49766  0.09235  1.0000
  I   I220      1.0  0.80471  0.50037  0.70296  1.0000
  I   I221      1.0  0.28874  0.95198  0.35971  1.0000
  I   I222      1.0  0.40550  0.08503  0.71692  1.0000
  I   I223      1.0  0.52144  0.48169  0.24114  1.0000
  I   I224      1.0  0.49476  0.79525  0.10211  1.0000
  I   I225      1.0  0.50266  0.41735  0.50291  1.0000
  I   I226      1.0  0.77570  0.36654  0.34600  1.0000
  I   I227      1.0  0.76700  0.69224  0.16105  1.0000
  I   I228      1.0  0.31897  0.26771  0.54644  1.0000
  I   I229      1.0  0.10278  0.98305  0.53864  1.0000
  I   I230      1.0  0.17359  0.40050  0.22484  1.0000
  I   I231      1.0  0.88134  0.43252  0.85813  1.0000
  I   I232      1.0  0.11601  0.29278  0.06988  1.0000
  I   I233      1.0  0.92550  0.56235  0.42401  1.0000
  I   I234      1.0  0.07542  0.51269  0.08121  1.0000
  I   I235      1.0  0.98837  0.91806  0.53593  1.0000
  I   I236      1.0  0.67693  0.42902  0.49733  1.0000
  I   I237      1.0  0.14497  0.85855  0.32800  1.0000
  I   I238      1.0  0.95260  0.35650  0.62644  1.0000
  I   I239      1.0  0.77388  0.36059  0.76635  1.0000
  I   I240      1.0  0.98006  0.15960  0.75210  1.0000
  I   I241      1.0  0.74607  0.21624  0.92503  1.0000
  I   I242      1.0  0.44601  0.68838  0.58970  1.0000
  I   I243      1.0  0.72210  0.94859  0.10305  1.0000
  I   I244      1.0  0.50930  0.14504  0.53526  1.0000
  I   I245      1.0  0.21279  0.79361  0.70984  1.0000
  I   I246      1.0  0.42842  0.38471  0.20478  1.0000
  I   I247      1.0  0.68397  0.06365  0.97738  1.0000
  I   I248      1.0  0.25280  0.75831  0.16276  1.0000
  I   I249      1.0  0.14781  0.41292  0.65557  1.0000
  I   I250      1.0  0.46155  0.53633  0.71703  1.0000
  I   I251      1.0  0.35988  0.00949  0.69148  1.0000
  I   I252      1.0  0.93517  0.11882  0.57648  1.0000
  I   I253      1.0  0.72985  0.69281  0.47003  1.0000
  I   I254      1.0  0.10045  0.29189  0.17941  1.0000
  I   I255      1.0  0.76196  0.78665  0.89383  1.0000
  I   I256      1.0  0.06425  0.85213  0.21253  1.0000
  I   I257      1.0  0.93781  0.58426  0.59131  1.0000
  I   I258      1.0  0.28908  0.20308  0.28923  1.0000
  I   I259      1.0  0.13091  0.19186  0.32699  1.0000
  I   I260      1.0  0.42795  0.26950  0.26249  1.0000
  I   I261      1.0  0.27423  0.70628  0.09246  1.0000
  I   I262      1.0  0.82484  0.34264  0.65070  1.0000
  I   I263      1.0  0.94200  0.72975  0.13749  1.0000
  I   I264      1.0  0.35762  0.20588  0.59661  1.0000
  I   I265      1.0  0.72975  0.54208  0.47667  1.0000
  I   I266      1.0  0.85343  0.95615  0.88411  1.0000
  I   I267      1.0  0.49090  0.50460  0.03999  1.0000
  I   I268      1.0  0.40980  0.13311  0.79321  1.0000
  I   I269      1.0  0.29264  0.95314  0.23914  1.0000
  I   I270      1.0  0.45505  0.08694  0.83427  1.0000
  I   I271      1.0  0.51779  0.46454  0.34039  1.0000
  I   I272      1.0  0.87628  0.59896  0.79810  1.0000
  I   I273      1.0  0.55642  0.42010  0.51405  1.0000
  I   I274      1.0  0.82226  0.60523  0.07266  1.0000
  I   I275      1.0  0.71171  0.74250  0.15136  1.0000
  I   I276      1.0  0.43097  0.20052  0.57274  1.0000
  I   I277      1.0  0.74695  0.35661  0.40411  1.0000
  I   I278      1.0  0.24203  0.37770  0.18512  1.0000
  I   I279      1.0  0.41743  0.15776  0.19684  1.0000
  I   I280      1.0  0.58395  0.45554  0.85524  1.0000
  I   I281      1.0  0.93246  0.50830  0.43298  1.0000
  I   I282      1.0  0.90979  0.66477  0.30020  1.0000
  I   I283      1.0  0.02768  0.81863  0.62755  1.0000
  I   I284      1.0  0.77249  0.31700  0.31126  1.0000
  I   I285      1.0  0.44585  0.09967  0.07790  1.0000
  I   I286      1.0  0.90971  0.35536  0.58245  1.0000
  I   I287      1.0  0.08250  0.90196  0.83049  1.0000
  I   I288      1.0  0.02850  0.10266  0.80748  1.0000
  I   I289      1.0  0.99173  0.87250  0.59185  1.0000
  I   I290      1.0  0.07585  0.21458  0.35586  1.0000
  I   I291      1.0  0.42800  0.64874  0.58439  1.0000
  I   I292      1.0  0.61378  0.39932  0.79567  1.0000
  I   I293      1.0  0.16386  0.85989  0.63343  1.0000
  I   I294      1.0  0.41771  0.92963  0.20638  1.0000
  I   I295      1.0  0.72779  0.08336  0.05578  1.0000
  I   I296      1.0  0.59113  0.87792  0.00444  1.0000
  I   I297      1.0  0.22873  0.38768  0.54077  1.0000
  I   I298      1.0  0.39091  0.89398  0.55040  1.0000
  I   I299      1.0  0.18138  0.56187  0.36024  1.0000
  I   I300      1.0  0.63087  0.46361  0.44688  1.0000
  I   I301      1.0  0.71662  0.80299  0.83241  1.0000
  I   I302      1.0  0.70794  0.74328  0.42324  1.0000
  I   I303      1.0  0.60954  0.73957  0.38977  1.0000
  I   I304      1.0  0.30198  0.18033  0.19796  1.0000
  I   I305      1.0  0.21283  0.52575  0.44932  1.0000
  I   I306      1.0  0.68021  0.13752  0.06873  1.0000
  I   I307      1.0  0.87309  0.11930  0.81477  1.0000
  I   I308      1.0  0.14777  0.53622  0.96530  1.0000
  I   I309      1.0  0.29995  0.70824  0.18627  1.0000
  I   I310      1.0  0.99961  0.85009  0.70923  1.0000
  I   I311      1.0  0.87998  0.76225  0.17422  1.0000
  I   I312      1.0  0.11360  0.93031  0.81512  1.0000
  I   I313      1.0  0.47110  0.47400  0.11973  1.0000
  I   I314      1.0  0.77929  0.51797  0.39320  1.0000
  I   I315      1.0  0.42543  0.19881  0.03435  1.0000
  I   I316      1.0  0.39757  0.13998  0.66524  1.0000
  I   I317      1.0  0.46281  0.13962  0.81341  1.0000
  I   I318      1.0  0.30023  0.90666  0.28239  1.0000
  I   I319      1.0  0.36524  0.77094  0.69540  1.0000
  I   I320      1.0  0.15759  0.24397  0.09047  1.0000
  I   I321      1.0  0.54003  0.76954  0.01483  1.0000
  I   I322      1.0  0.76621  0.65505  0.02960  1.0000
  I   I323      1.0  0.06966  0.41118  0.63725  1.0000
  I   I324      1.0  0.35732  0.26043  0.47501  1.0000
  I   I325      1.0  0.88922  0.55712  0.66270  1.0000
  I   I326      1.0  0.65424  0.11550  0.87476  1.0000
  I   I327      1.0  0.44946  0.10343  0.18576  1.0000
  I   I328      1.0  0.67430  0.74038  0.33157  1.0000
  I   I329      1.0  0.28363  0.44206  0.10264  1.0000
  I   I330      1.0  0.04425  0.47974  0.06542  1.0000
  I   I331      1.0  0.44528  0.14252  0.02919  1.0000
  I   I332      1.0  0.35037  0.92580  0.61873  1.0000
  I   I333      1.0  0.89231  0.56212  0.52243  1.0000
  I   I334      1.0  0.00584  0.05846  0.68162  1.0000
  I   I335      1.0  0.74919  0.98223  0.00902  1.0000
  I   I336      1.0  0.81720  0.31722  0.81413  1.0000
  I   I337      1.0  0.03686  0.91015  0.58392  1.0000
  I   I338      1.0  0.11921  0.18243  0.45032  1.0000
  I   I339      1.0  0.48541  0.63815  0.58534  1.0000
  I   I340      1.0  0.36941  0.97959  0.95265  1.0000
  I   I341      1.0  0.21386  0.07140  0.90644  1.0000
  I   I342      1.0  0.45744  0.92191  0.30300  1.0000
  I   I343      1.0  0.49463  0.75128  0.04251  1.0000
  I   I344      1.0  0.61858  0.88798  0.10124  1.0000
  I   I345      1.0  0.22940  0.43232  0.55699  1.0000
  I   I346      1.0  0.23322  0.11600  0.30542  1.0000
  I   I347      1.0  0.49382  0.47847  0.73986  1.0000
  I   I348      1.0  0.99463  0.07738  0.54509  1.0000
  I   I349      1.0  0.76878  0.81250  0.80214  1.0000
  I   I350      1.0  0.72020  0.79295  0.39507  1.0000
  I   I351      1.0  0.08501  0.25453  0.07573  1.0000
  I   I352      1.0  0.33370  0.13604  0.29447  1.0000
  I   I353      1.0  0.01046  0.87687  0.15094  1.0000
  I   I354      1.0  0.63318  0.09548  0.93638  1.0000
  I   I355      1.0  0.92634  0.07239  0.85424  1.0000
  I   I356      1.0  0.46336  0.29645  0.30420  1.0000
  I   I357      1.0  0.93220  0.90209  0.88779  1.0000
  I   I358      1.0  0.71210  0.32684  0.31720  1.0000
  I   I359      1.0  0.89139  0.71753  0.11024  1.0000
  I   I360      1.0  0.16564  0.92907  0.81632  1.0000
  I   I361      1.0  0.42679  0.57931  0.05066  1.0000
  I   I362      1.0  0.76652  0.48182  0.47029  1.0000
  I   I363      1.0  0.88015  0.89748  0.87619  1.0000
  I   I364      1.0  0.34526  0.84989  0.04915  1.0000
  I   I365      1.0  0.83103  0.52669  0.66191  1.0000
  I   I366      1.0  0.34203  0.91141  0.34272  1.0000
  I   I367      1.0  0.31385  0.80678  0.63811  1.0000
  I   I368      1.0  0.34383  0.94346  0.00863  1.0000
  I   I369      1.0  0.83684  0.61549  0.90791  1.0000
  I   I370      1.0  0.79563  0.59740  0.98506  1.0000
  I   I371      1.0  0.01063  0.43262  0.68750  1.0000
  I   I372      1.0  0.74258  0.29166  0.22349  1.0000
  I   I373      1.0  0.87230  0.59507  0.59793  1.0000
  I   I374      1.0  0.20422  0.37966  0.11585  1.0000
  I   I375      1.0  0.40165  0.14876  0.12010  1.0000
  I   I376      1.0  0.54174  0.12059  0.63502  1.0000
  I   I377      1.0  0.28718  0.48401  0.04254  1.0000
  I   I378      1.0  0.91741  0.61214  0.25715  1.0000
  I   I379      1.0  0.12756  0.88531  0.21360  1.0000
  I   I380      1.0  0.78792  0.18281  0.49651  1.0000
  I   I381      1.0  0.94679  0.14440  0.48231  1.0000
  I   I382      1.0  0.97428  0.10693  0.78397  1.0000
  I   I383      1.0  0.97104  0.30961  0.53892  1.0000
  I   I384      1.0  0.12708  0.88892  0.90684  1.0000
