data_image0
_chemical_formula_structural       Ti96I384
_chemical_formula_sum              "Ti96 I384"
_cell_length_a       76.1944
_cell_length_b       76.1637
_cell_length_c       37.253
_cell_angle_alpha    88.7757
_cell_angle_beta     88.7757
_cell_angle_gamma    62.1586

_space_group_name_H-M_alt    "P 1"
_space_group_IT_number       1

loop_
  _space_group_symop_operation_xyz
  'x, y, z'

loop_
  _atom_site_type_symbol
  _atom_site_label
  _atom_site_symmetry_multiplicity
  _atom_site_fract_x
  _atom_site_fract_y
  _atom_site_fract_z
  _atom_site_occupancy
  Ti  Ti1       1.0  0.76717  0.06353  0.68156  1.0000
  Ti  Ti2       1.0  0.46461  0.80156  0.71590  1.0000
  Ti  Ti3       1.0  0.14727  0.14939  0.50772  1.0000
  Ti  Ti4       1.0  0.20595  0.18040  0.80449  1.0000
  Ti  Ti5       1.0  0.36081  0.01775  0.73600  1.0000
  Ti  Ti6       1.0  0.48826  0.55142  0.00222  1.0000
  Ti  Ti7       1.0  0.85949  0.88308  0.08666  1.0000
  Ti  Ti8       1.0  0.29214  0.88155  0.36393  1.0000
  Ti  Ti9       1.0  0.14060  0.52105  0.65484  1.0000
  Ti  Ti10      1.0  0.47392  0.75594  0.35016  1.0000
  Ti  Ti11      1.0  0.22217  0.79290  0.08388  1.0000
  Ti  Ti12      1.0  0.67758  0.02888  0.96886  1.0000
  Ti  Ti13      1.0  0.83826  0.66487  0.76771  1.0000
  Ti  Ti14      1.0  0.15800  0.22168  0.78677  1.0000
  Ti  Ti15      1.0  0.88392  0.34536  0.03097  1.0000
  Ti  Ti16      1.0  0.22580  0.73499  0.50126  1.0000
  Ti  Ti17      1.0  0.20191  0.69830  0.56708  1.0000
  Ti  Ti18      1.0  0.61635  0.09574  0.85227  1.0000
  Ti  Ti19      1.0  0.77435  0.25909  0.90617  1.0000
  Ti  Ti20      1.0  0.04610  0.68606  0.89615  1.0000
  Ti  Ti21      1.0  0.34696  0.85159  0.39555  1.0000
  Ti  Ti22      1.0  0.58309  0.40998  0.82708  1.0000
  Ti  Ti23      1.0  0.16588  0.60053  0.58193  1.0000
  Ti  Ti24      1.0  0.66445  0.24029  0.59963  1.0000
  Ti  Ti25      1.0  0.69818  0.54514  0.03369  1.0000
  Ti  Ti26      1.0  0.07828  0.74763  0.66083  1.0000
  Ti  Ti27      1.0  0.63933  0.64714  0.01758  1.0000
  Ti  Ti28      1.0  0.56736  0.09501  0.96875  1.0000
  Ti  Ti29      1.0  0.04408  0.02130  0.91162  1.0000
  Ti  Ti30      1.0  0.13830  0.95920  0.24644  1.0000
  Ti  Ti31      1.0  0.74902  0.23514  0.14844  1.0000
  Ti  Ti32      1.0  0.50009  0.71198  0.14970  1.0000
  Ti  Ti33      1.0  0.57979  0.28121  0.90626  1.0000
  Ti  Ti34      1.0  0.80109  0.54325  0.24676  1.0000
  Ti  Ti35      1.0  0.50572  0.85672  0.25200  1.0000
  Ti  Ti36      1.0  0.21571  0.24058  0.46804  1.0000
  Ti  Ti37      1.0  0.08860  0.40019  0.81724  1.0000
  Ti  Ti38      1.0  0.36589  0.42976  0.68824  1.0000
  Ti  Ti39      1.0  0.96414  0.25222  0.63248  1.0000
  Ti  Ti40      1.0  0.51785  0.74446  0.41814  1.0000
  Ti  Ti41      1.0  0.76792  0.59309  0.19804  1.0000
  Ti  Ti42      1.0  0.80220  0.83879  0.46391  1.0000
  Ti  Ti43      1.0  0.03455  0.81061  0.34515  1.0000
  Ti  Ti44      1.0  0.74857  0.33185  0.29880  1.0000
  Ti  Ti45      1.0  0.66758  0.82710  0.31330  1.0000
  Ti  Ti46      1.0  0.84837  0.60995  0.01121  1.0000
  Ti  Ti47      1.0  0.96686  0.92478  0.96670  1.0000
  Ti  Ti48      1.0  0.00458  0.92344  0.48583  1.0000
  Ti  Ti49      1.0  0.03852  0.82944  0.41458  1.0000
  Ti  Ti50      1.0  0.09678  0.37622  0.05231  1.0000
  Ti  Ti51      1.0  0.50506  0.75327  0.69249  1.0000
  Ti  Ti52      1.0  0.45171  0.41443  0.05211  1.0000
  Ti  Ti53      1.0  0.42320  0.68618  0.81016  1.0000
  Ti  Ti54      1.0  0.40634  0.89037  0.80738  1.0000
  Ti  Ti55      1.0  0.44692  0.76456  0.05422  1.0000
  Ti  Ti56      1.0  0.75782  0.86842  0.79827  1.0000
  Ti  Ti57      1.0  0.18208  0.53115  0.66090  1.0000
  Ti  Ti58      1.0  0.38837  0.10032  0.81148  1.0000
  Ti  Ti59      1.0  0.25444  0.76215  0.49416  1.0000
  Ti  Ti60      1.0  0.88613  0.18222  0.98279  1.0000
  Ti  Ti61      1.0  0.68730  0.03332  0.50094  1.0000
  Ti  Ti62      1.0  0.88538  0.62977  0.69060  1.0000
  Ti  Ti63      1.0  0.06995  0.74036  0.88026  1.0000
  Ti  Ti64      1.0  0.61387  0.06776  0.74180  1.0000
  Ti  Ti65      1.0  0.57710  0.17616  0.61194  1.0000
  Ti  Ti66      1.0  0.37524  0.08712  0.09315  1.0000
  Ti  Ti67      1.0  0.33987  0.11987  0.32312  1.0000
  Ti  Ti68      1.0  0.64629  0.16852  0.05557  1.0000
  Ti  Ti69      1.0  0.04433  0.76963  0.57538  1.0000
  Ti  Ti70      1.0  0.26649  0.07973  0.50491  1.0000
  Ti  Ti71      1.0  0.21781  0.71851  0.17539  1.0000
  Ti  Ti72      1.0  0.02870  0.89691  0.95416  1.0000
  Ti  Ti73      1.0  0.63859  0.40269  0.25405  1.0000
  Ti  Ti74      1.0  0.74135  0.51115  0.08736  1.0000
  Ti  Ti75      1.0  0.16304  0.60303  0.14053  1.0000
  Ti  Ti76      1.0  0.46181  0.03956  0.53814  1.0000
  Ti  Ti77      1.0  0.85199  0.33315  0.99716  1.0000
  Ti  Ti78      1.0  0.01711  0.09109  0.93448  1.0000
  Ti  Ti79      1.0  0.43317  0.85571  0.36655  1.0000
  Ti  Ti80      1.0  0.67188  0.88259  0.91768  1.0000
  Ti  Ti81      1.0  0.09747  0.66810  0.39735  1.0000
  Ti  Ti82      1.0  0.71281  0.51232  0.82520  1.0000
  Ti  Ti83      1.0  0.07972  0.40663  0.29657  1.0000
  Ti  Ti84      1.0  0.23354  0.24022  0.57342  1.0000
  Ti  Ti85      1.0  0.12107  0.40030  0.75981  1.0000
  Ti  Ti86      1.0  0.91850  0.88096  0.13077  1.0000
  Ti  Ti87      1.0  0.69998  0.79884  0.25474  1.0000
  Ti  Ti88      1.0  0.16848  0.66222  0.03348  1.0000
  Ti  Ti89      1.0  0.09131  0.50227  0.25232  1.0000
  Ti  Ti90      1.0  0.07012  0.36026  0.11525  1.0000
  Ti  Ti91      1.0  0.81174  0.09266  0.44064  1.0000
  Ti  Ti92      1.0  0.34255  0.49878  0.20564  1.0000
  Ti  Ti93      1.0  0.46365  0.54720  0.69662  1.0000
  Ti  Ti94      1.0  0.97751  0.94377  0.54556  1.0000
  Ti  Ti95      1.0  0.27177  0.24069  0.07566  1.0000
  Ti  Ti96      1.0  0.55252  0.46483  0.82752  1.0000
  I   I1        1.0  0.01353  0.89950  0.89181  1.0000
  I   I2        1.0  0.50054  0.78103  0.75807  1.0000
  I   I3        1.0  0.00327  0.86379  0.42361  1.0000
  I   I4        1.0  0.39238  0.67938  0.79731  1.0000
  I   I5        1.0  0.47604  0.58875  0.97453  1.0000
  I   I6        1.0  0.42585  0.85221  0.81582  1.0000
  I   I7        1.0  0.34142  0.85700  0.32497  1.0000
  I   I8        1.0  0.79715  0.85217  0.78767  1.0000
  I   I9        1.0  0.16273  0.51322  0.71210  1.0000
  I   I10       1.0  0.47034  0.76970  0.41213  1.0000
  I   I11       1.0  0.19858  0.80633  0.13681  1.0000
  I   I12       1.0  0.32449  0.03085  0.71218  1.0000
  I   I13       1.0  0.87616  0.65751  0.75351  1.0000
  I   I14       1.0  0.08321  0.70872  0.91986  1.0000
  I   I15       1.0  0.85372  0.35083  0.07408  1.0000
  I   I16       1.0  0.54859  0.71069  0.44117  1.0000
  I   I17       1.0  0.37027  0.08219  0.02220  1.0000
  I   I18       1.0  0.59192  0.10074  0.78834  1.0000
  I   I19       1.0  0.05299  0.68871  0.83023  1.0000
  I   I20       1.0  0.20241  0.78350  0.03777  1.0000
  I   I21       1.0  0.26094  0.89265  0.41577  1.0000
  I   I22       1.0  0.13027  0.62646  0.55803  1.0000
  I   I23       1.0  0.21343  0.75141  0.20187  1.0000
  I   I24       1.0  0.25677  0.11433  0.51658  1.0000
  I   I25       1.0  0.70679  0.57143  0.00830  1.0000
  I   I26       1.0  0.15795  0.58844  0.20542  1.0000
  I   I27       1.0  0.65578  0.66213  0.97882  1.0000
  I   I28       1.0  0.57691  0.06850  0.02056  1.0000
  I   I29       1.0  0.02649  0.10234  0.99408  1.0000
  I   I30       1.0  0.15586  0.92098  0.23391  1.0000
  I   I31       1.0  0.71067  0.86782  0.92712  1.0000
  I   I32       1.0  0.10245  0.66880  0.32458  1.0000
  I   I33       1.0  0.46825  0.83231  0.40276  1.0000
  I   I34       1.0  0.48660  0.86144  0.19087  1.0000
  I   I35       1.0  0.23741  0.27135  0.56070  1.0000
  I   I36       1.0  0.82340  0.50946  0.19417  1.0000
  I   I37       1.0  0.14059  0.38307  0.70054  1.0000
  I   I38       1.0  0.94100  0.24073  0.59962  1.0000
  I   I39       1.0  0.12844  0.42809  0.73616  1.0000
  I   I40       1.0  0.74756  0.35181  0.35343  1.0000
  I   I41       1.0  0.07242  0.39540  0.13069  1.0000
  I   I42       1.0  0.52534  0.75599  0.47757  1.0000
  I   I43       1.0  0.36781  0.13927  0.78945  1.0000
  I   I44       1.0  0.76455  0.29888  0.33430  1.0000
  I   I45       1.0  0.64148  0.81851  0.34535  1.0000
  I   I46       1.0  0.26420  0.26871  0.12746  1.0000
  I   I47       1.0  0.95693  0.89500  0.95296  1.0000
  I   I48       1.0  0.00965  0.90235  0.55279  1.0000
  I   I49       1.0  0.03221  0.84936  0.34298  1.0000
  I   I50       1.0  0.47116  0.83077  0.71609  1.0000
  I   I51       1.0  0.43077  0.81477  0.75353  1.0000
  I   I52       1.0  0.65546  0.86741  0.95987  1.0000
  I   I53       1.0  0.42931  0.66831  0.87196  1.0000
  I   I54       1.0  0.37114  0.89590  0.82441  1.0000
  I   I55       1.0  0.89019  0.85867  0.14049  1.0000
  I   I56       1.0  0.30496  0.84657  0.38158  1.0000
  I   I57       1.0  0.26282  0.21660  0.03837  1.0000
  I   I58       1.0  0.45717  0.78440  0.30730  1.0000
  I   I59       1.0  0.22783  0.80329  0.48557  1.0000
  I   I60       1.0  0.92049  0.15198  0.97839  1.0000
  I   I61       1.0  0.79750  0.68195  0.74957  1.0000
  I   I62       1.0  0.85788  0.65989  0.65829  1.0000
  I   I63       1.0  0.03333  0.72472  0.90370  1.0000
  I   I64       1.0  0.23045  0.70358  0.46033  1.0000
  I   I65       1.0  0.59203  0.14174  0.64946  1.0000
  I   I66       1.0  0.34991  0.07879  0.12739  1.0000
  I   I67       1.0  0.76704  0.24425  0.96110  1.0000
  I   I68       1.0  0.07855  0.65619  0.91766  1.0000
  I   I69       1.0  0.00722  0.77668  0.55598  1.0000
  I   I70       1.0  0.29201  0.07781  0.45475  1.0000
  I   I71       1.0  0.19556  0.58593  0.53168  1.0000
  I   I72       1.0  0.95741  0.94369  0.90142  1.0000
  I   I73       1.0  0.66270  0.62416  0.06531  1.0000
  I   I74       1.0  0.07866  0.76321  0.72465  1.0000
  I   I75       1.0  0.10729  0.71213  0.67669  1.0000
  I   I76       1.0  0.88185  0.33702  0.95120  1.0000
  I   I77       1.0  0.88151  0.30267  0.02399  1.0000
  I   I78       1.0  0.72178  0.27145  0.14919  1.0000
  I   I79       1.0  0.61864  0.26649  0.90626  1.0000
  I   I80       1.0  0.74282  0.09625  0.71017  1.0000
  I   I81       1.0  0.51347  0.67865  0.11823  1.0000
  I   I82       1.0  0.72200  0.48395  0.78329  1.0000
  I   I83       1.0  0.07179  0.44122  0.29355  1.0000
  I   I84       1.0  0.20179  0.24428  0.54038  1.0000
  I   I85       1.0  0.07860  0.39411  0.88439  1.0000
  I   I86       1.0  0.40096  0.07626  0.14356  1.0000
  I   I87       1.0  0.00056  0.23773  0.61018  1.0000
  I   I88       1.0  0.49553  0.72951  0.29498  1.0000
  I   I89       1.0  0.82468  0.55983  0.23065  1.0000
  I   I90       1.0  0.04481  0.37985  0.07070  1.0000
  I   I91       1.0  0.84092  0.06579  0.40126  1.0000
  I   I92       1.0  0.32401  0.48071  0.23526  1.0000
  I   I93       1.0  0.77493  0.33318  0.25508  1.0000
  I   I94       1.0  0.96789  0.92032  0.49795  1.0000
  I   I95       1.0  0.87021  0.57709  0.04689  1.0000
  I   I96       1.0  0.58604  0.40152  0.75908  1.0000
  I   I97       1.0  0.16924  0.16925  0.50284  1.0000
  I   I98       1.0  0.75182  0.04306  0.70716  1.0000
  I   I99       1.0  0.52431  0.71118  0.69646  1.0000
  I   I100      1.0  0.23146  0.18212  0.85687  1.0000
  I   I101      1.0  0.14099  0.67731  0.08606  1.0000
  I   I102      1.0  0.36746  0.04161  0.69153  1.0000
  I   I103      1.0  0.83687  0.88059  0.14298  1.0000
  I   I104      1.0  0.41357  0.80252  0.05404  1.0000
  I   I105      1.0  0.17793  0.50639  0.61403  1.0000
  I   I106      1.0  0.70677  0.00297  0.92441  1.0000
  I   I107      1.0  0.50884  0.71870  0.37484  1.0000
  I   I108      1.0  0.66001  0.05949  0.00484  1.0000
  I   I109      1.0  0.91072  0.32358  0.07901  1.0000
  I   I110      1.0  0.83343  0.66325  0.83414  1.0000
  I   I111      1.0  0.03678  0.77074  0.91777  1.0000
  I   I112      1.0  0.63854  0.07705  0.71350  1.0000
  I   I113      1.0  0.59247  0.19445  0.57961  1.0000
  I   I114      1.0  0.23321  0.66503  0.59497  1.0000
  I   I115      1.0  0.32723  0.09916  0.35647  1.0000
  I   I116      1.0  0.30921  0.15546  0.31991  1.0000
  I   I117      1.0  0.61535  0.19529  0.08360  1.0000
  I   I118      1.0  0.57719  0.43838  0.88247  1.0000
  I   I119      1.0  0.36381  0.13520  0.33445  1.0000
  I   I120      1.0  0.00213  0.93522  0.97890  1.0000
  I   I121      1.0  0.61985  0.38227  0.26648  1.0000
  I   I122      1.0  0.69159  0.53295  0.97451  1.0000
  I   I123      1.0  0.19395  0.60687  0.14900  1.0000
  I   I124      1.0  0.16272  0.97397  0.24447  1.0000
  I   I125      1.0  0.42702  0.05135  0.56942  1.0000
  I   I126      1.0  0.97980  0.10681  0.95849  1.0000
  I   I127      1.0  0.56879  0.31204  0.85304  1.0000
  I   I128      1.0  0.18493  0.18639  0.74704  1.0000
  I   I129      1.0  0.08339  0.70511  0.42225  1.0000
  I   I130      1.0  0.27113  0.22706  0.60435  1.0000
  I   I131      1.0  0.71101  0.54593  0.80342  1.0000
  I   I132      1.0  0.54127  0.83071  0.23409  1.0000
  I   I133      1.0  0.96133  0.25102  0.70669  1.0000
  I   I134      1.0  0.38422  0.39158  0.69988  1.0000
  I   I135      1.0  0.36119  0.12407  0.09461  1.0000
  I   I136      1.0  0.81472  0.86460  0.45505  1.0000
  I   I137      1.0  0.44386  0.40614  0.12066  1.0000
  I   I138      1.0  0.09234  0.51381  0.18615  1.0000
  I   I139      1.0  0.82438  0.11455  0.47117  1.0000
  I   I140      1.0  0.37562  0.47163  0.18151  1.0000
  I   I141      1.0  0.46868  0.56036  0.64087  1.0000
  I   I142      1.0  0.98970  0.96110  0.59328  1.0000
  I   I143      1.0  0.10825  0.17226  0.51003  1.0000
  I   I144      1.0  0.61130  0.37406  0.84257  1.0000
  I   I145      1.0  0.77711  0.06086  0.61048  1.0000
  I   I146      1.0  0.45751  0.81153  0.64494  1.0000
  I   I147      1.0  0.12693  0.12930  0.48118  1.0000
  I   I148      1.0  0.43244  0.41358  0.99600  1.0000
  I   I149      1.0  0.37691  0.98442  0.69586  1.0000
  I   I150      1.0  0.46125  0.54042  0.02400  1.0000
  I   I151      1.0  0.47682  0.72951  0.02122  1.0000
  I   I152      1.0  0.28421  0.91869  0.33975  1.0000
  I   I153      1.0  0.12168  0.49903  0.65992  1.0000
  I   I154      1.0  0.05591  0.77025  0.36039  1.0000
  I   I155      1.0  0.25660  0.79352  0.10910  1.0000
  I   I156      1.0  0.85156  0.18763  0.95565  1.0000
  I   I157      1.0  0.81596  0.36770  0.98939  1.0000
  I   I158      1.0  0.09707  0.75294  0.87226  1.0000
  I   I159      1.0  0.69448  0.05521  0.54209  1.0000
  I   I160      1.0  0.62277  0.03276  0.72862  1.0000
  I   I161      1.0  0.23407  0.71341  0.56147  1.0000
  I   I162      1.0  0.59162  0.13376  0.87048  1.0000
  I   I163      1.0  0.78973  0.22732  0.85928  1.0000
  I   I164      1.0  0.66151  0.14848  0.11294  1.0000
  I   I165      1.0  0.26266  0.88964  0.32003  1.0000
  I   I166      1.0  0.52420  0.49229  0.86951  1.0000
  I   I167      1.0  0.17583  0.56464  0.62686  1.0000
  I   I168      1.0  0.69830  0.22738  0.62542  1.0000
  I   I169      1.0  0.75044  0.50682  0.16298  1.0000
  I   I170      1.0  0.70491  0.51289  0.09885  1.0000
  I   I171      1.0  0.61286  0.68042  0.05048  1.0000
  I   I172      1.0  0.48376  0.00232  0.55965  1.0000
  I   I173      1.0  0.00861  0.11950  0.89236  1.0000
  I   I174      1.0  0.10278  0.98595  0.23795  1.0000
  I   I175      1.0  0.76678  0.22865  0.08888  1.0000
  I   I176      1.0  0.46315  0.73299  0.12865  1.0000
  I   I177      1.0  0.43547  0.86336  0.29156  1.0000
  I   I178      1.0  0.75540  0.49145  0.82621  1.0000
  I   I179      1.0  0.05617  0.39043  0.28346  1.0000
  I   I180      1.0  0.24560  0.21136  0.50370  1.0000
  I   I181      1.0  0.10617  0.42015  0.82731  1.0000
  I   I182      1.0  0.89775  0.89407  0.06716  1.0000
  I   I183      1.0  0.73908  0.79325  0.25891  1.0000
  I   I184      1.0  0.17584  0.68033  0.98427  1.0000
  I   I185      1.0  0.05992  0.49652  0.25847  1.0000
  I   I186      1.0  0.76345  0.86629  0.44582  1.0000
  I   I187      1.0  0.32763  0.51209  0.14290  1.0000
  I   I188      1.0  0.71267  0.35450  0.26791  1.0000
  I   I189      1.0  0.68956  0.84051  0.26718  1.0000
  I   I190      1.0  0.84807  0.60760  0.94075  1.0000
  I   I191      1.0  0.08384  0.36005  0.00553  1.0000
  I   I192      1.0  0.15343  0.13153  0.56721  1.0000
  I   I193      1.0  0.04537  0.98460  0.90958  1.0000
  I   I194      1.0  0.07716  0.41580  0.03679  1.0000
  I   I195      1.0  0.15727  0.13392  0.44131  1.0000
  I   I196      1.0  0.23682  0.14497  0.78512  1.0000
  I   I197      1.0  0.37033  0.07954  0.79020  1.0000
  I   I198      1.0  0.51272  0.53209  0.95311  1.0000
  I   I199      1.0  0.49745  0.70450  0.21474  1.0000
  I   I200      1.0  0.74049  0.88334  0.73879  1.0000
  I   I201      1.0  0.12081  0.53564  0.59518  1.0000
  I   I202      1.0  0.26932  0.76852  0.54576  1.0000
  I   I203      1.0  0.04383  0.74823  0.64048  1.0000
  I   I204      1.0  0.66273  0.00744  0.99651  1.0000
  I   I205      1.0  0.85496  0.62559  0.72669  1.0000
  I   I206      1.0  0.14369  0.23754  0.85203  1.0000
  I   I207      1.0  0.83387  0.31299  0.98099  1.0000
  I   I208      1.0  0.22451  0.75826  0.44458  1.0000
  I   I209      1.0  0.18098  0.70616  0.63212  1.0000
  I   I210      1.0  0.41083  0.83777  0.36404  1.0000
  I   I211      1.0  0.24003  0.07299  0.47702  1.0000
  I   I212      1.0  0.03321  0.65859  0.88590  1.0000
  I   I213      1.0  0.05343  0.78800  0.63565  1.0000
  I   I214      1.0  0.53451  0.44537  0.79745  1.0000
  I   I215      1.0  0.17027  0.63047  0.60545  1.0000
  I   I216      1.0  0.47886  0.55317  0.76150  1.0000
  I   I217      1.0  0.65899  0.56619  0.04937  1.0000
  I   I218      1.0  0.12854  0.63043  0.10900  1.0000
  I   I219      1.0  0.65957  0.39934  0.31133  1.0000
  I   I220      1.0  0.91621  0.34860  0.00330  1.0000
  I   I221      1.0  0.05804  0.00283  0.98160  1.0000
  I   I222      1.0  0.46563  0.03980  0.46520  1.0000
  I   I223      1.0  0.77220  0.23863  0.19410  1.0000
  I   I224      1.0  0.52103  0.73066  0.14981  1.0000
  I   I225      1.0  0.57245  0.24966  0.91593  1.0000
  I   I226      1.0  0.70980  0.49840  0.89221  1.0000
  I   I227      1.0  0.49633  0.84599  0.31511  1.0000
  I   I228      1.0  0.19440  0.22257  0.45274  1.0000
  I   I229      1.0  0.18860  0.67474  0.54463  1.0000
  I   I230      1.0  0.36375  0.46299  0.72000  1.0000
  I   I231      1.0  0.94455  0.29172  0.63245  1.0000
  I   I232      1.0  0.14803  0.25905  0.76058  1.0000
  I   I233      1.0  0.76778  0.62097  0.15956  1.0000
  I   I234      1.0  0.06999  0.32851  0.11016  1.0000
  I   I235      1.0  0.07044  0.81268  0.36548  1.0000
  I   I236      1.0  0.49023  0.50871  0.69398  1.0000
  I   I237      1.0  0.81447  0.06978  0.49290  1.0000
  I   I238      1.0  0.30885  0.23168  0.06070  1.0000
  I   I239      1.0  0.55301  0.48950  0.78135  1.0000
  I   I240      1.0  0.02018  0.90320  0.42731  1.0000
  I   I241      1.0  0.79519  0.06424  0.71594  1.0000
  I   I242      1.0  0.46906  0.76113  0.72360  1.0000
  I   I243      1.0  0.81125  0.61042  0.02444  1.0000
  I   I244      1.0  0.16478  0.63543  0.99776  1.0000
  I   I245      1.0  0.44912  0.66028  0.76858  1.0000
  I   I246      1.0  0.51489  0.53690  0.05920  1.0000
  I   I247      1.0  0.95664  0.87991  0.11934  1.0000
  I   I248      1.0  0.36915  0.81083  0.39070  1.0000
  I   I249      1.0  0.12361  0.55826  0.67724  1.0000
  I   I250      1.0  0.26807  0.72303  0.47937  1.0000
  I   I251      1.0  0.22755  0.81624  0.02912  1.0000
  I   I252      1.0  0.88589  0.21186  0.95410  1.0000
  I   I253      1.0  0.82710  0.70334  0.76538  1.0000
  I   I254      1.0  0.13671  0.20540  0.77588  1.0000
  I   I255      1.0  0.67304  0.01022  0.53759  1.0000
  I   I256      1.0  0.56253  0.20167  0.66691  1.0000
  I   I257      1.0  0.07340  0.37814  0.79530  1.0000
  I   I258      1.0  0.64988  0.10053  0.85646  1.0000
  I   I259      1.0  0.34293  0.10557  0.25921  1.0000
  I   I260      1.0  0.66559  0.18414  0.02646  1.0000
  I   I261      1.0  0.37709  0.84860  0.43956  1.0000
  I   I262      1.0  0.55571  0.39864  0.83741  1.0000
  I   I263      1.0  0.18789  0.71616  0.21219  1.0000
  I   I264      1.0  0.23172  0.23062  0.40235  1.0000
  I   I265      1.0  0.71735  0.55439  0.09526  1.0000
  I   I266      1.0  0.05611  0.74811  0.51723  1.0000
  I   I267      1.0  0.61333  0.43807  0.25368  1.0000
  I   I268      1.0  0.59236  0.09534  0.91005  1.0000
  I   I269      1.0  0.03835  0.02137  0.84128  1.0000
  I   I270      1.0  0.53700  0.09633  0.94089  1.0000
  I   I271      1.0  0.76092  0.19916  0.17914  1.0000
  I   I272      1.0  0.07813  0.64894  0.38662  1.0000
  I   I273      1.0  0.55958  0.29392  0.96593  1.0000
  I   I274      1.0  0.74017  0.59423  0.15616  1.0000
  I   I275      1.0  0.50263  0.89215  0.26057  1.0000
  I   I276      1.0  0.21932  0.24348  0.63866  1.0000
  I   I277      1.0  0.67469  0.52574  0.84229  1.0000
  I   I278      1.0  0.33218  0.45133  0.66793  1.0000
  I   I279      1.0  0.65783  0.81591  0.24571  1.0000
  I   I280      1.0  0.44465  0.45075  0.04365  1.0000
  I   I281      1.0  0.77819  0.55213  0.18361  1.0000
  I   I282      1.0  0.78685  0.83762  0.53145  1.0000
  I   I283      1.0  0.01290  0.79047  0.32963  1.0000
  I   I284      1.0  0.66238  0.21846  0.54781  1.0000
  I   I285      1.0  0.69756  0.78513  0.19521  1.0000
  I   I286      1.0  0.24551  0.26471  0.02488  1.0000
  I   I287      1.0  0.94369  0.95375  0.00889  1.0000
  I   I288      1.0  0.04116  0.91915  0.50093  1.0000
  I   I289      1.0  0.03339  0.81029  0.27649  1.0000
  I   I290      1.0  0.10878  0.34342  0.09710  1.0000
  I   I291      1.0  0.54013  0.75077  0.68283  1.0000
  I   I292      1.0  0.48869  0.38556  0.06211  1.0000
  I   I293      1.0  0.40934  0.72251  0.78453  1.0000
  I   I294      1.0  0.39433  0.91419  0.75216  1.0000
  I   I295      1.0  0.86137  0.85910  0.03770  1.0000
  I   I296      1.0  0.73682  0.84790  0.80908  1.0000
  I   I297      1.0  0.21975  0.51438  0.68095  1.0000
  I   I298      1.0  0.40476  0.10097  0.87411  1.0000
  I   I299      1.0  0.18281  0.73584  0.52734  1.0000
  I   I300      1.0  0.43381  0.54016  0.73218  1.0000
  I   I301      1.0  0.70717  0.02423  0.44091  1.0000
  I   I302      1.0  0.88736  0.60678  0.64374  1.0000
  I   I303      1.0  0.45437  0.73303  0.35383  1.0000
  I   I304      1.0  0.62789  0.05628  0.81953  1.0000
  I   I305      1.0  0.21704  0.76777  0.54689  1.0000
  I   I306      1.0  0.83000  0.91691  0.06154  1.0000
  I   I307      1.0  0.74016  0.28500  0.88233  1.0000
  I   I308      1.0  0.07885  0.72229  0.81960  1.0000
  I   I309      1.0  0.31404  0.88618  0.42296  1.0000
  I   I310      1.0  0.01491  0.80922  0.41358  1.0000
  I   I311      1.0  0.20980  0.71820  0.10597  1.0000
  I   I312      1.0  0.05843  0.89491  0.99474  1.0000
  I   I313      1.0  0.66083  0.39871  0.19754  1.0000
  I   I314      1.0  0.74356  0.51526  0.02048  1.0000
  I   I315      1.0  0.18078  0.56951  0.10534  1.0000
  I   I316      1.0  0.48201  0.05316  0.57196  1.0000
  I   I317      1.0  0.56494  0.12585  0.00755  1.0000
  I   I318      1.0  0.05383  0.05309  0.92000  1.0000
  I   I319      1.0  0.42186  0.87149  0.43251  1.0000
  I   I320      1.0  0.19401  0.22361  0.79428  1.0000
  I   I321      1.0  0.42779  0.74343  0.04371  1.0000
  I   I322      1.0  0.77910  0.52882  0.29162  1.0000
  I   I323      1.0  0.09794  0.39852  0.35984  1.0000
  I   I324      1.0  0.20121  0.27744  0.45043  1.0000
  I   I325      1.0  0.13301  0.36647  0.78770  1.0000
  I   I326      1.0  0.93390  0.85041  0.17590  1.0000
  I   I327      1.0  0.69411  0.83164  0.35787  1.0000
  I   I328      1.0  0.51060  0.77061  0.36298  1.0000
  I   I329      1.0  0.08427  0.52546  0.30336  1.0000
  I   I330      1.0  0.06028  0.35923  0.19200  1.0000
  I   I331      1.0  0.68848  0.77904  0.30549  1.0000
  I   I332      1.0  0.41191  0.08742  0.75394  1.0000
  I   I333      1.0  0.82561  0.51072  0.28890  1.0000
  I   I334      1.0  0.93911  0.96283  0.56993  1.0000
  I   I335      1.0  0.85654  0.63520  0.03871  1.0000
  I   I336      1.0  0.58898  0.44469  0.79675  1.0000
  I   I337      1.0  0.06186  0.83240  0.46698  1.0000
  I   I338      1.0  0.12424  0.37971  0.00852  1.0000
  I   I339      1.0  0.49045  0.76718  0.62834  1.0000
  I   I340      1.0  0.66083  0.91763  0.94483  1.0000
  I   I341      1.0  0.37720  0.01670  0.79548  1.0000
  I   I342      1.0  0.42387  0.89954  0.85697  1.0000
  I   I343      1.0  0.47224  0.77646  0.06183  1.0000
  I   I344      1.0  0.74838  0.88553  0.86069  1.0000
  I   I345      1.0  0.18116  0.54715  0.72834  1.0000
  I   I346      1.0  0.28628  0.04676  0.55229  1.0000
  I   I347      1.0  0.26682  0.77879  0.43770  1.0000
  I   I348      1.0  0.87402  0.19175  0.04833  1.0000
  I   I349      1.0  0.65311  0.05831  0.48735  1.0000
  I   I350      1.0  0.92446  0.61914  0.68622  1.0000
  I   I351      1.0  0.18477  0.17957  0.85912  1.0000
  I   I352      1.0  0.58979  0.08967  0.69039  1.0000
  I   I353      1.0  0.55499  0.17003  0.56342  1.0000
  I   I354      1.0  0.90998  0.91686  0.15181  1.0000
  I   I355      1.0  0.79299  0.27790  0.93075  1.0000
  I   I356      1.0  0.65612  0.13611  0.01579  1.0000
  I   I357      1.0  0.09258  0.74496  0.59511  1.0000
  I   I358      1.0  0.65663  0.21716  0.64979  1.0000
  I   I359      1.0  0.25562  0.69599  0.18868  1.0000
  I   I360      1.0  0.05844  0.86419  0.92943  1.0000
  I   I361      1.0  0.63928  0.62116  0.96751  1.0000
  I   I362      1.0  0.76293  0.47178  0.08859  1.0000
  I   I363      1.0  0.05561  0.79360  0.54513  1.0000
  I   I364      1.0  0.12871  0.95657  0.31373  1.0000
  I   I365      1.0  0.86393  0.37970  0.00019  1.0000
  I   I366      1.0  0.01271  0.05047  0.93715  1.0000
  I   I367      1.0  0.42665  0.89593  0.35089  1.0000
  I   I368      1.0  0.65184  0.89017  0.85693  1.0000
  I   I369      1.0  0.13353  0.64766  0.42085  1.0000
  I   I370      1.0  0.74957  0.60646  0.26058  1.0000
  I   I371      1.0  0.09868  0.39276  0.23598  1.0000
  I   I372      1.0  0.65905  0.26735  0.53872  1.0000
  I   I373      1.0  0.07693  0.41901  0.75280  1.0000
  I   I374      1.0  0.39151  0.42864  0.64242  1.0000
  I   I375      1.0  0.63614  0.86342  0.32971  1.0000
  I   I376      1.0  0.20303  0.64619  0.06497  1.0000
  I   I377      1.0  0.11911  0.47246  0.28324  1.0000
  I   I378      1.0  0.82878  0.80575  0.42540  1.0000
  I   I379      1.0  0.79453  0.11433  0.37896  1.0000
  I   I380      1.0  0.35094  0.52127  0.24034  1.0000
  I   I381      1.0  0.70990  0.01724  0.01603  1.0000
  I   I382      1.0  0.97549  0.96191  0.48146  1.0000
  I   I383      1.0  0.28150  0.22246  0.14069  1.0000
  I   I384      1.0  0.00341  0.88833  0.99701  1.0000
