data_image0
_chemical_formula_structural       Ti96I384
_chemical_formula_sum              "Ti96 I384"
_cell_length_a       69.775
_cell_length_b       69.51
_cell_length_c       34.0808
_cell_angle_alpha    88.7757
_cell_angle_beta     88.7757
_cell_angle_gamma    62.1586

_space_group_name_H-M_alt    "P 1"
_space_group_IT_number       1

loop_
  _space_group_symop_operation_xyz
  'x, y, z'

loop_
  _atom_site_type_symbol
  _atom_site_label
  _atom_site_symmetry_multiplicity
  _atom_site_fract_x
  _atom_site_fract_y
  _atom_site_fract_z
  _atom_site_occupancy
  Ti  Ti1       1.0  0.02127  0.98901  0.44074  1.0000
  Ti  Ti2       1.0  0.06667  0.13936  0.23970  1.0000
  Ti  Ti3       1.0  0.43593  0.97629  0.35999  1.0000
  Ti  Ti4       1.0  0.98751  0.39791  0.47993  1.0000
  Ti  Ti5       1.0  0.32698  0.64443  0.21875  1.0000
  Ti  Ti6       1.0  0.65710  0.02063  0.00396  1.0000
  Ti  Ti7       1.0  0.92639  0.56819  0.59466  1.0000
  Ti  Ti8       1.0  0.25769  0.59919  0.46459  1.0000
  Ti  Ti9       1.0  0.38343  0.04968  0.64363  1.0000
  Ti  Ti10      1.0  0.24719  0.45655  0.68217  1.0000
  Ti  Ti11      1.0  0.24134  0.30911  0.72482  1.0000
  Ti  Ti12      1.0  0.90429  0.68296  0.98310  1.0000
  Ti  Ti13      1.0  0.79814  0.28879  0.68566  1.0000
  Ti  Ti14      1.0  0.81106  0.12658  0.66444  1.0000
  Ti  Ti15      1.0  0.72604  0.77734  0.75733  1.0000
  Ti  Ti16      1.0  0.25439  0.49706  0.78764  1.0000
  Ti  Ti17      1.0  0.32872  0.90544  0.54289  1.0000
  Ti  Ti18      1.0  0.55127  0.75153  0.55741  1.0000
  Ti  Ti19      1.0  0.51844  0.59128  0.57516  1.0000
  Ti  Ti20      1.0  0.44189  0.19848  0.72962  1.0000
  Ti  Ti21      1.0  0.29151  0.55852  0.42493  1.0000
  Ti  Ti22      1.0  0.60771  0.93054  0.53502  1.0000
  Ti  Ti23      1.0  0.26637  0.12571  0.30293  1.0000
  Ti  Ti24      1.0  0.21963  0.76113  0.75971  1.0000
  Ti  Ti25      1.0  0.45404  0.07071  0.91456  1.0000
  Ti  Ti26      1.0  0.04771  0.90537  0.03686  1.0000
  Ti  Ti27      1.0  0.79786  0.19095  0.08054  1.0000
  Ti  Ti28      1.0  0.55192  0.82907  0.92564  1.0000
  Ti  Ti29      1.0  0.05548  0.76708  0.59640  1.0000
  Ti  Ti30      1.0  0.34920  0.91588  0.77681  1.0000
  Ti  Ti31      1.0  0.09854  0.40807  0.69424  1.0000
  Ti  Ti32      1.0  0.23051  0.03856  0.93274  1.0000
  Ti  Ti33      1.0  0.23721  0.82449  0.44411  1.0000
  Ti  Ti34      1.0  0.49949  0.35115  0.01110  1.0000
  Ti  Ti35      1.0  0.73381  0.60475  0.72664  1.0000
  Ti  Ti36      1.0  0.16424  0.17358  0.13004  1.0000
  Ti  Ti37      1.0  0.19100  0.18302  0.64787  1.0000
  Ti  Ti38      1.0  0.53106  0.48581  0.14664  1.0000
  Ti  Ti39      1.0  0.08287  0.54595  0.14008  1.0000
  Ti  Ti40      1.0  0.89979  0.49716  0.96824  1.0000
  Ti  Ti41      1.0  0.42626  0.23444  0.45599  1.0000
  Ti  Ti42      1.0  0.15202  0.91257  0.69978  1.0000
  Ti  Ti43      1.0  0.22183  0.04615  0.29391  1.0000
  Ti  Ti44      1.0  0.66246  0.92868  0.84393  1.0000
  Ti  Ti45      1.0  0.22164  0.35468  0.09814  1.0000
  Ti  Ti46      1.0  0.69387  0.47828  0.15159  1.0000
  Ti  Ti47      1.0  0.52329  0.44725  0.62266  1.0000
  Ti  Ti48      1.0  0.87440  0.03224  0.28617  1.0000
  Ti  Ti49      1.0  0.04750  0.08217  0.60615  1.0000
  Ti  Ti50      1.0  0.09296  0.34083  0.41458  1.0000
  Ti  Ti51      1.0  0.03661  0.12628  0.30113  1.0000
  Ti  Ti52      1.0  0.64548  0.13392  0.00301  1.0000
  Ti  Ti53      1.0  0.38779  0.78593  0.27870  1.0000
  Ti  Ti54      1.0  0.91943  0.86911  0.15664  1.0000
  Ti  Ti55      1.0  0.91115  0.60023  0.51713  1.0000
  Ti  Ti56      1.0  0.62042  0.29424  0.24003  1.0000
  Ti  Ti57      1.0  0.38979  0.09735  0.58367  1.0000
  Ti  Ti58      1.0  0.66685  0.28636  0.63133  1.0000
  Ti  Ti59      1.0  0.64225  0.28159  0.94052  1.0000
  Ti  Ti60      1.0  0.87588  0.69295  0.06444  1.0000
  Ti  Ti61      1.0  0.67537  0.79430  0.66518  1.0000
  Ti  Ti62      1.0  0.82103  0.25591  0.60533  1.0000
  Ti  Ti63      1.0  0.83907  0.10808  0.55335  1.0000
  Ti  Ti64      1.0  0.50784  0.75895  0.63181  1.0000
  Ti  Ti65      1.0  0.73459  0.94159  0.64121  1.0000
  Ti  Ti66      1.0  0.34554  0.26965  0.96046  1.0000
  Ti  Ti67      1.0  0.61027  0.85763  0.13361  1.0000
  Ti  Ti68      1.0  0.50479  0.64269  0.52473  1.0000
  Ti  Ti69      1.0  0.99582  0.88995  0.03648  1.0000
  Ti  Ti70      1.0  0.44129  0.88093  0.26491  1.0000
  Ti  Ti71      1.0  0.26137  0.17440  0.25985  1.0000
  Ti  Ti72      1.0  0.52372  0.41231  0.68875  1.0000
  Ti  Ti73      1.0  0.77580  0.14241  0.12137  1.0000
  Ti  Ti74      1.0  0.42258  0.10644  0.98347  1.0000
  Ti  Ti75      1.0  0.37670  0.80678  0.98225  1.0000
  Ti  Ti76      1.0  0.39133  0.91377  0.74377  1.0000
  Ti  Ti77      1.0  0.50491  0.84379  0.89805  1.0000
  Ti  Ti78      1.0  0.10182  0.76395  0.54543  1.0000
  Ti  Ti79      1.0  0.56225  0.72092  0.41846  1.0000
  Ti  Ti80      1.0  0.01668  0.38185  0.54321  1.0000
  Ti  Ti81      1.0  0.23733  0.04396  0.80201  1.0000
  Ti  Ti82      1.0  0.44994  0.23200  0.16155  1.0000
  Ti  Ti83      1.0  0.69511  0.62289  0.63714  1.0000
  Ti  Ti84      1.0  0.16196  0.14972  0.06124  1.0000
  Ti  Ti85      1.0  0.16165  0.21396  0.55659  1.0000
  Ti  Ti86      1.0  0.33150  0.32184  0.85724  1.0000
  Ti  Ti87      1.0  0.29133  0.30474  0.12920  1.0000
  Ti  Ti88      1.0  0.60216  0.14177  0.98253  1.0000
  Ti  Ti89      1.0  0.41024  0.30677  0.48708  1.0000
  Ti  Ti90      1.0  0.18485  0.94245  0.66943  1.0000
  Ti  Ti91      1.0  0.13904  0.55964  0.04254  1.0000
  Ti  Ti92      1.0  0.37136  0.63502  0.97770  1.0000
  Ti  Ti93      1.0  0.11868  0.71493  0.14975  1.0000
  Ti  Ti94      1.0  0.87977  0.98608  0.34071  1.0000
  Ti  Ti95      1.0  0.72894  0.39048  0.73726  1.0000
  Ti  Ti96      1.0  0.55468  0.58000  0.78576  1.0000
  I   I1        1.0  0.49108  0.48401  0.59365  1.0000
  I   I2        1.0  0.01664  0.11414  0.24889  1.0000
  I   I3        1.0  0.04590  0.11793  0.59994  1.0000
  I   I4        1.0  0.39132  0.75979  0.22733  1.0000
  I   I5        1.0  0.61424  0.04766  0.99908  1.0000
  I   I6        1.0  0.94258  0.88831  0.12453  1.0000
  I   I7        1.0  0.27153  0.59481  0.38361  1.0000
  I   I8        1.0  0.58978  0.33482  0.23910  1.0000
  I   I9        1.0  0.41829  0.08371  0.51357  1.0000
  I   I10       1.0  0.25452  0.48064  0.85703  1.0000
  I   I11       1.0  0.20784  0.33137  0.77338  1.0000
  I   I12       1.0  0.34830  0.64540  0.27646  1.0000
  I   I13       1.0  0.76446  0.30993  0.73380  1.0000
  I   I14       1.0  0.82803  0.14113  0.60621  1.0000
  I   I15       1.0  0.72280  0.76947  0.83365  1.0000
  I   I16       1.0  0.28879  0.49906  0.79427  1.0000
  I   I17       1.0  0.35939  0.22524  0.96226  1.0000
  I   I18       1.0  0.57090  0.77600  0.55458  1.0000
  I   I19       1.0  0.41609  0.18211  0.75338  1.0000
  I   I20       1.0  0.27074  0.29353  0.77552  1.0000
  I   I21       1.0  0.25651  0.63809  0.47998  1.0000
  I   I22       1.0  0.23670  0.11513  0.32992  1.0000
  I   I23       1.0  0.29711  0.15685  0.21898  1.0000
  I   I24       1.0  0.47642  0.85207  0.30030  1.0000
  I   I25       1.0  0.38145  0.13598  0.97986  1.0000
  I   I26       1.0  0.40617  0.78761  0.03425  1.0000
  I   I27       1.0  0.78664  0.17336  0.14703  1.0000
  I   I28       1.0  0.57412  0.81202  0.98918  1.0000
  I   I29       1.0  0.11425  0.73538  0.60720  1.0000
  I   I30       1.0  0.36232  0.87259  0.78210  1.0000
  I   I31       1.0  0.00079  0.40684  0.60174  1.0000
  I   I32       1.0  0.20231  0.05185  0.87646  1.0000
  I   I33       1.0  0.56851  0.68143  0.44740  1.0000
  I   I34       1.0  0.74179  0.57109  0.77723  1.0000
  I   I35       1.0  0.20250  0.13295  0.13595  1.0000
  I   I36       1.0  0.45861  0.36642  0.99476  1.0000
  I   I37       1.0  0.16066  0.22658  0.64433  1.0000
  I   I38       1.0  0.05450  0.58510  0.12288  1.0000
  I   I39       1.0  0.15862  0.17985  0.60511  1.0000
  I   I40       1.0  0.46062  0.20156  0.47866  1.0000
  I   I41       1.0  0.18745  0.89363  0.64975  1.0000
  I   I42       1.0  0.88322  0.50217  0.04105  1.0000
  I   I43       1.0  0.69274  0.25619  0.68587  1.0000
  I   I44       1.0  0.66708  0.96537  0.85093  1.0000
  I   I45       1.0  0.24771  0.34488  0.16554  1.0000
  I   I46       1.0  0.72194  0.35965  0.76860  1.0000
  I   I47       1.0  0.50314  0.45888  0.70006  1.0000
  I   I48       1.0  0.87951  0.05732  0.23823  1.0000
  I   I49       1.0  0.07373  0.05103  0.56162  1.0000
  I   I50       1.0  0.05893  0.08398  0.31943  1.0000
  I   I51       1.0  0.02044  0.13868  0.36989  1.0000
  I   I52       1.0  0.01807  0.41542  0.49833  1.0000
  I   I53       1.0  0.34718  0.81610  0.28623  1.0000
  I   I54       1.0  0.94878  0.83004  0.16784  1.0000
  I   I55       1.0  0.90751  0.56076  0.52214  1.0000
  I   I56       1.0  0.29741  0.54199  0.34804  1.0000
  I   I57       1.0  0.40574  0.00539  0.64358  1.0000
  I   I58       1.0  0.21281  0.47852  0.63290  1.0000
  I   I59       1.0  0.66137  0.26517  0.00564  1.0000
  I   I60       1.0  0.87868  0.72123  0.00369  1.0000
  I   I61       1.0  0.86111  0.22341  0.59809  1.0000
  I   I62       1.0  0.81776  0.24790  0.70848  1.0000
  I   I63       1.0  0.82966  0.08763  0.50062  1.0000
  I   I64       1.0  0.25371  0.50122  0.70321  1.0000
  I   I65       1.0  0.71995  0.97646  0.58569  1.0000
  I   I66       1.0  0.30257  0.29076  0.97584  1.0000
  I   I67       1.0  0.54496  0.58699  0.50598  1.0000
  I   I68       1.0  0.43712  0.21021  0.65488  1.0000
  I   I69       1.0  0.01114  0.85428  0.07870  1.0000
  I   I70       1.0  0.43366  0.86276  0.20545  1.0000
  I   I71       1.0  0.28335  0.10033  0.24199  1.0000
  I   I72       1.0  0.55093  0.40794  0.74138  1.0000
  I   I73       1.0  0.76969  0.10802  0.09473  1.0000
  I   I74       1.0  0.03537  0.93291  0.97725  1.0000
  I   I75       1.0  0.02014  0.89014  0.97390  1.0000
  I   I76       1.0  0.51235  0.84277  0.98069  1.0000
  I   I77       1.0  0.53236  0.80195  0.90443  1.0000
  I   I78       1.0  0.99412  0.98423  0.49011  1.0000
  I   I79       1.0  0.27278  0.81278  0.40553  1.0000
  I   I80       1.0  0.06209  0.44151  0.67792  1.0000
  I   I81       1.0  0.25960  0.03007  0.86451  1.0000
  I   I82       1.0  0.48496  0.24295  0.19036  1.0000
  I   I83       1.0  0.70844  0.65572  0.64133  1.0000
  I   I84       1.0  0.12838  0.19812  0.08630  1.0000
  I   I85       1.0  0.20311  0.19401  0.56910  1.0000
  I   I86       1.0  0.35944  0.33559  0.85523  1.0000
  I   I87       1.0  0.05639  0.54109  0.19981  1.0000
  I   I88       1.0  0.90244  0.53355  0.95435  1.0000
  I   I89       1.0  0.42915  0.33135  0.44824  1.0000
  I   I90       1.0  0.18649  0.97163  0.71186  1.0000
  I   I91       1.0  0.12387  0.54361  0.98995  1.0000
  I   I92       1.0  0.37619  0.66688  0.01527  1.0000
  I   I93       1.0  0.69471  0.88894  0.85105  1.0000
  I   I94       1.0  0.87347  0.95287  0.31864  1.0000
  I   I95       1.0  0.71560  0.47666  0.21657  1.0000
  I   I96       1.0  0.57057  0.57329  0.85632  1.0000
  I   I97       1.0  0.41387  0.95980  0.32238  1.0000
  I   I98       1.0  0.05968  0.95950  0.46261  1.0000
  I   I99       1.0  0.08756  0.16085  0.26594  1.0000
  I   I100      1.0  0.03284  0.36097  0.46510  1.0000
  I   I101      1.0  0.63847  0.16290  0.94292  1.0000
  I   I102      1.0  0.28404  0.65388  0.22078  1.0000
  I   I103      1.0  0.93589  0.59752  0.62211  1.0000
  I   I104      1.0  0.89594  0.60709  0.44126  1.0000
  I   I105      1.0  0.42292  0.05288  0.62100  1.0000
  I   I106      1.0  0.90850  0.64451  0.00272  1.0000
  I   I107      1.0  0.24307  0.42266  0.68966  1.0000
  I   I108      1.0  0.83843  0.70099  0.03717  1.0000
  I   I109      1.0  0.75056  0.79537  0.74549  1.0000
  I   I110      1.0  0.82331  0.29735  0.62784  1.0000
  I   I111      1.0  0.86637  0.10943  0.49838  1.0000
  I   I112      1.0  0.54703  0.75832  0.65705  1.0000
  I   I113      1.0  0.70397  0.93175  0.66534  1.0000
  I   I114      1.0  0.33764  0.94114  0.54362  1.0000
  I   I115      1.0  0.58115  0.86868  0.07933  1.0000
  I   I116      1.0  0.58666  0.89311  0.18156  1.0000
  I   I117      1.0  0.53131  0.65609  0.55019  1.0000
  I   I118      1.0  0.61190  0.89867  0.49203  1.0000
  I   I119      1.0  0.44052  0.91723  0.23929  1.0000
  I   I120      1.0  0.51754  0.37783  0.69729  1.0000
  I   I121      1.0  0.80302  0.14543  0.06618  1.0000
  I   I122      1.0  0.45995  0.03511  0.88765  1.0000
  I   I123      1.0  0.35379  0.84718  0.01500  1.0000
  I   I124      1.0  0.33995  0.91373  0.85380  1.0000
  I   I125      1.0  0.55431  0.86574  0.92682  1.0000
  I   I126      1.0  0.05631  0.76459  0.67439  1.0000
  I   I127      1.0  0.22516  0.86571  0.44584  1.0000
  I   I128      1.0  0.97294  0.44070  0.45071  1.0000
  I   I129      1.0  0.26109  0.99960  0.95686  1.0000
  I   I130      1.0  0.13322  0.13502  0.10315  1.0000
  I   I131      1.0  0.47500  0.23093  0.10324  1.0000
  I   I132      1.0  0.73311  0.58954  0.64737  1.0000
  I   I133      1.0  0.12094  0.51803  0.17448  1.0000
  I   I134      1.0  0.55299  0.44404  0.16331  1.0000
  I   I135      1.0  0.33981  0.27723  0.87974  1.0000
  I   I136      1.0  0.17393  0.95663  0.60127  1.0000
  I   I137      1.0  0.59390  0.17671  0.02895  1.0000
  I   I138      1.0  0.39069  0.23480  0.48614  1.0000
  I   I139      1.0  0.17453  0.52705  0.07027  1.0000
  I   I140      1.0  0.32984  0.65863  0.96636  1.0000
  I   I141      1.0  0.13803  0.67298  0.14485  1.0000
  I   I142      1.0  0.84273  0.01412  0.30288  1.0000
  I   I143      1.0  0.69983  0.43778  0.13449  1.0000
  I   I144      1.0  0.51178  0.60692  0.76640  1.0000
  I   I145      1.0  0.02467  0.02511  0.45114  1.0000
  I   I146      1.0  0.06161  0.14682  0.16182  1.0000
  I   I147      1.0  0.46885  0.96658  0.31387  1.0000
  I   I148      1.0  0.69278  0.11016  0.99892  1.0000
  I   I149      1.0  0.35324  0.61619  0.16858  1.0000
  I   I150      1.0  0.66648  0.04258  0.95780  1.0000
  I   I151      1.0  0.86572  0.61944  0.55256  1.0000
  I   I152      1.0  0.24806  0.60346  0.53706  1.0000
  I   I153      1.0  0.41243  0.11514  0.59794  1.0000
  I   I154      1.0  0.22212  0.01751  0.34905  1.0000
  I   I155      1.0  0.25563  0.28500  0.66021  1.0000
  I   I156      1.0  0.89266  0.65938  0.10915  1.0000
  I   I157      1.0  0.74950  0.73675  0.73436  1.0000
  I   I158      1.0  0.88306  0.08456  0.58608  1.0000
  I   I159      1.0  0.67774  0.80576  0.59291  1.0000
  I   I160      1.0  0.53571  0.71959  0.59122  1.0000
  I   I161      1.0  0.30243  0.90957  0.60936  1.0000
  I   I162      1.0  0.50846  0.78225  0.56434  1.0000
  I   I163      1.0  0.50481  0.56429  0.57959  1.0000
  I   I164      1.0  0.47261  0.67607  0.49968  1.0000
  I   I165      1.0  0.31212  0.52458  0.46983  1.0000
  I   I166      1.0  0.56957  0.96164  0.51400  1.0000
  I   I167      1.0  0.27549  0.15795  0.33507  1.0000
  I   I168      1.0  0.21923  0.74212  0.69503  1.0000
  I   I169      1.0  0.45272  0.11487  0.94352  1.0000
  I   I170      1.0  0.44641  0.06263  0.99792  1.0000
  I   I171      1.0  0.78231  0.12008  0.18729  1.0000
  I   I172      1.0  0.41731  0.86948  0.74399  1.0000
  I   I173      1.0  0.11165  0.73825  0.48722  1.0000
  I   I174      1.0  0.39316  0.90537  0.82905  1.0000
  I   I175      1.0  0.09036  0.38279  0.74282  1.0000
  I   I176      1.0  0.19796  0.04174  0.97461  1.0000
  I   I177      1.0  0.60298  0.70472  0.44298  1.0000
  I   I178      1.0  0.43619  0.24169  0.23854  1.0000
  I   I179      1.0  0.69474  0.62802  0.56058  1.0000
  I   I180      1.0  0.14112  0.17769  0.18841  1.0000
  I   I181      1.0  0.13610  0.25583  0.54279  1.0000
  I   I182      1.0  0.37802  0.26066  0.00915  1.0000
  I   I183      1.0  0.29501  0.33767  0.09616  1.0000
  I   I184      1.0  0.57478  0.16668  0.92485  1.0000
  I   I185      1.0  0.42341  0.26629  0.51441  1.0000
  I   I186      1.0  0.14564  0.89007  0.75771  1.0000
  I   I187      1.0  0.38942  0.62489  0.90510  1.0000
  I   I188      1.0  0.63034  0.92703  0.86905  1.0000
  I   I189      1.0  0.19429  0.33962  0.09330  1.0000
  I   I190      1.0  0.68431  0.50356  0.08930  1.0000
  I   I191      1.0  0.07544  0.37034  0.47973  1.0000
  I   I192      1.0  0.90708  0.02371  0.33198  1.0000
  I   I193      1.0  0.06988  0.80442  0.59113  1.0000
  I   I194      1.0  0.06966  0.33115  0.36603  1.0000
  I   I195      1.0  0.45378  0.95608  0.42118  1.0000
  I   I196      1.0  0.98063  0.37500  0.42928  1.0000
  I   I197      1.0  0.63474  0.30663  0.68035  1.0000
  I   I198      1.0  0.67582  0.00955  0.07330  1.0000
  I   I199      1.0  0.94287  0.53818  0.64775  1.0000
  I   I200      1.0  0.62148  0.25713  0.27363  1.0000
  I   I201      1.0  0.34492  0.05781  0.67618  1.0000
  I   I202      1.0  0.60185  0.29404  0.94914  1.0000
  I   I203      1.0  0.96554  0.88979  0.99821  1.0000
  I   I204      1.0  0.92813  0.68618  0.04881  1.0000
  I   I205      1.0  0.82040  0.29897  0.73682  1.0000
  I   I206      1.0  0.83484  0.10344  0.72112  1.0000
  I   I207      1.0  0.72310  0.78195  0.65658  1.0000
  I   I208      1.0  0.22647  0.47594  0.74795  1.0000
  I   I209      1.0  0.34749  0.86546  0.53785  1.0000
  I   I210      1.0  0.54213  0.74863  0.48716  1.0000
  I   I211      1.0  0.60359  0.82842  0.17155  1.0000
  I   I212      1.0  0.48058  0.16601  0.72867  1.0000
  I   I213      1.0  0.97877  0.93563  0.02254  1.0000
  I   I214      1.0  0.60761  0.92316  0.61268  1.0000
  I   I215      1.0  0.29994  0.10449  0.34602  1.0000
  I   I216      1.0  0.18354  0.78569  0.78538  1.0000
  I   I217      1.0  0.45048  0.08571  0.84509  1.0000
  I   I218      1.0  0.35179  0.78951  0.98836  1.0000
  I   I219      1.0  0.83889  0.18299  0.08449  1.0000
  I   I220      1.0  0.52126  0.84832  0.81886  1.0000
  I   I221      1.0  0.05031  0.73202  0.59737  1.0000
  I   I222      1.0  0.36639  0.95706  0.76223  1.0000
  I   I223      1.0  0.11370  0.39507  0.62789  1.0000
  I   I224      1.0  0.27285  0.02660  0.75717  1.0000
  I   I225      1.0  0.21006  0.82443  0.38955  1.0000
  I   I226      1.0  0.41792  0.26488  0.12423  1.0000
  I   I227      1.0  0.72689  0.63952  0.75076  1.0000
  I   I228      1.0  0.14265  0.16154  0.99285  1.0000
  I   I229      1.0  0.18552  0.16396  0.70843  1.0000
  I   I230      1.0  0.48885  0.49646  0.14964  1.0000
  I   I231      1.0  0.08172  0.52443  0.08233  1.0000
  I   I232      1.0  0.77868  0.12336  0.70337  1.0000
  I   I233      1.0  0.41532  0.27351  0.41793  1.0000
  I   I234      1.0  0.22647  0.91894  0.66432  1.0000
  I   I235      1.0  0.22744  0.03064  0.22209  1.0000
  I   I236      1.0  0.09441  0.74774  0.19231  1.0000
  I   I237      1.0  0.11192  0.56764  0.10886  1.0000
  I   I238      1.0  0.70761  0.42612  0.77771  1.0000
  I   I239      1.0  0.59053  0.57578  0.75454  1.0000
  I   I240      1.0  0.85614  0.99322  0.40456  1.0000
  I   I241      1.0  0.05779  0.06865  0.68292  1.0000
  I   I242      1.0  0.07325  0.12987  0.32660  1.0000
  I   I243      1.0  0.40927  0.01552  0.32391  1.0000
  I   I244      1.0  0.63608  0.11765  0.93568  1.0000
  I   I245      1.0  0.39525  0.76577  0.34695  1.0000
  I   I246      1.0  0.65687  0.99105  0.95476  1.0000
  I   I247      1.0  0.95316  0.57179  0.51915  1.0000
  I   I248      1.0  0.25278  0.55659  0.42868  1.0000
  I   I249      1.0  0.36042  0.12421  0.52807  1.0000
  I   I250      1.0  0.64296  0.31551  0.89862  1.0000
  I   I251      1.0  0.23920  0.34193  0.67352  1.0000
  I   I252      1.0  0.87867  0.67959  0.92999  1.0000
  I   I253      1.0  0.81474  0.27552  0.53559  1.0000
  I   I254      1.0  0.79426  0.16428  0.69909  1.0000
  I   I255      1.0  0.68662  0.78165  0.74614  1.0000
  I   I256      1.0  0.75926  0.94656  0.69556  1.0000
  I   I257      1.0  0.29714  0.90650  0.49641  1.0000
  I   I258      1.0  0.50686  0.73731  0.69325  1.0000
  I   I259      1.0  0.64977  0.84582  0.13813  1.0000
  I   I260      1.0  0.49789  0.63180  0.60192  1.0000
  I   I261      1.0  0.21457  0.61001  0.45042  1.0000
  I   I262      1.0  0.64258  0.93691  0.51440  1.0000
  I   I263      1.0  0.22475  0.16650  0.27629  1.0000
  I   I264      1.0  0.24485  0.78211  0.76487  1.0000
  I   I265      1.0  0.40854  0.08797  0.92014  1.0000
  I   I266      1.0  0.02205  0.90782  0.10155  1.0000
  I   I267      1.0  0.73201  0.16703  0.14683  1.0000
  I   I268      1.0  0.47335  0.83560  0.87404  1.0000
  I   I269      1.0  0.13769  0.76524  0.56205  1.0000
  I   I270      1.0  0.41993  0.92103  0.71166  1.0000
  I   I271      1.0  0.11783  0.41649  0.75437  1.0000
  I   I272      1.0  0.21177  0.07760  0.75942  1.0000
  I   I273      1.0  0.21724  0.81899  0.50497  1.0000
  I   I274      1.0  0.51863  0.35692  0.95027  1.0000
  I   I275      1.0  0.65198  0.65097  0.62502  1.0000
  I   I276      1.0  0.19553  0.11015  0.03454  1.0000
  I   I277      1.0  0.44557  0.19723  0.16032  1.0000
  I   I278      1.0  0.52788  0.50457  0.21336  1.0000
  I   I279      1.0  0.31818  0.26804  0.09430  1.0000
  I   I280      1.0  0.62467  0.11709  0.04742  1.0000
  I   I281      1.0  0.41639  0.22305  0.38777  1.0000
  I   I282      1.0  0.12728  0.95350  0.69621  1.0000
  I   I283      1.0  0.19571  0.08945  0.28689  1.0000
  I   I284      1.0  0.15533  0.71599  0.17865  1.0000
  I   I285      1.0  0.19606  0.39109  0.12782  1.0000
  I   I286      1.0  0.70291  0.39789  0.68142  1.0000
  I   I287      1.0  0.55375  0.45821  0.61072  1.0000
  I   I288      1.0  0.91668  0.96907  0.38354  1.0000
  I   I289      1.0  0.01361  0.07384  0.61144  1.0000
  I   I290      1.0  0.09812  0.36561  0.36277  1.0000
  I   I291      1.0  0.02677  0.16652  0.25895  1.0000
  I   I292      1.0  0.65840  0.15779  0.05619  1.0000
  I   I293      1.0  0.40882  0.80958  0.26339  1.0000
  I   I294      1.0  0.88466  0.88332  0.11622  1.0000
  I   I295      1.0  0.89259  0.57995  0.63244  1.0000
  I   I296      1.0  0.62305  0.28530  0.16636  1.0000
  I   I297      1.0  0.37242  0.09602  0.65637  1.0000
  I   I298      1.0  0.66304  0.27373  0.56313  1.0000
  I   I299      1.0  0.27747  0.45301  0.63542  1.0000
  I   I300      1.0  0.85780  0.72792  0.10836  1.0000
  I   I301      1.0  0.64448  0.78519  0.67160  1.0000
  I   I302      1.0  0.77581  0.28239  0.62579  1.0000
  I   I303      1.0  0.93894  0.48273  0.99415  1.0000
  I   I304      1.0  0.59004  0.72001  0.56550  1.0000
  I   I305      1.0  0.22809  0.53970  0.79147  1.0000
  I   I306      1.0  0.34269  0.30887  0.93957  1.0000
  I   I307      1.0  0.47667  0.62255  0.51493  1.0000
  I   I308      1.0  0.44815  0.21829  0.78558  1.0000
  I   I309      1.0  0.30189  0.57824  0.49517  1.0000
  I   I310      1.0  0.25891  0.04052  0.31347  1.0000
  I   I311      1.0  0.24484  0.18667  0.19290  1.0000
  I   I312      1.0  0.48031  0.42512  0.71567  1.0000
  I   I313      1.0  0.77762  0.22870  0.11831  1.0000
  I   I314      1.0  0.50027  0.05650  0.91679  1.0000
  I   I315      1.0  0.38893  0.80526  0.90943  1.0000
  I   I316      1.0  0.36239  0.91233  0.69997  1.0000
  I   I317      1.0  0.58101  0.82236  0.86871  1.0000
  I   I318      1.0  0.06009  0.77604  0.50966  1.0000
  I   I319      1.0  0.56181  0.70323  0.35041  1.0000
  I   I320      1.0  0.94671  0.41689  0.50373  1.0000
  I   I321      1.0  0.23613  0.06836  0.95970  1.0000
  I   I322      1.0  0.51069  0.31449  0.04545  1.0000
  I   I323      1.0  0.77695  0.58142  0.70207  1.0000
  I   I324      1.0  0.17374  0.20047  0.16744  1.0000
  I   I325      1.0  0.23324  0.16117  0.65286  1.0000
  I   I326      1.0  0.32853  0.30684  0.78971  1.0000
  I   I327      1.0  0.26003  0.30110  0.09705  1.0000
  I   I328      1.0  0.90182  0.48789  0.89235  1.0000
  I   I329      1.0  0.37141  0.31752  0.45897  1.0000
  I   I330      1.0  0.17821  0.92307  0.74486  1.0000
  I   I331      1.0  0.22052  0.36897  0.02777  1.0000
  I   I332      1.0  0.69312  0.30279  0.61853  1.0000
  I   I333      1.0  0.65792  0.93197  0.77070  1.0000
  I   I334      1.0  0.85477  0.06607  0.34303  1.0000
  I   I335      1.0  0.65176  0.50026  0.18074  1.0000
  I   I336      1.0  0.56513  0.53916  0.77104  1.0000
  I   I337      1.0  0.01780  0.98269  0.37268  1.0000
  I   I338      1.0  0.12857  0.30956  0.44520  1.0000
  I   I339      1.0  0.09955  0.09824  0.23842  1.0000
  I   I340      1.0  0.05459  0.35522  0.59151  1.0000
  I   I341      1.0  0.31314  0.68126  0.17477  1.0000
  I   I342      1.0  0.90477  0.88999  0.22507  1.0000
  I   I343      1.0  0.91464  0.63606  0.51483  1.0000
  I   I344      1.0  0.65973  0.28921  0.26003  1.0000
  I   I345      1.0  0.36951  0.06957  0.57833  1.0000
  I   I346      1.0  0.40545  0.89591  0.31152  1.0000
  I   I347      1.0  0.65776  0.24798  0.89852  1.0000
  I   I348      1.0  0.93609  0.68072  0.93666  1.0000
  I   I349      1.0  0.66374  0.83466  0.69102  1.0000
  I   I350      1.0  0.81336  0.22792  0.57087  1.0000
  I   I351      1.0  0.83006  0.08676  0.60953  1.0000
  I   I352      1.0  0.48345  0.80006  0.65960  1.0000
  I   I353      1.0  0.76152  0.90998  0.59872  1.0000
  I   I354      1.0  0.29156  0.35311  0.87200  1.0000
  I   I355      1.0  0.55440  0.57633  0.61233  1.0000
  I   I356      1.0  0.51781  0.63869  0.45018  1.0000
  I   I357      1.0  0.08054  0.86430  0.03293  1.0000
  I   I358      1.0  0.23373  0.72797  0.80837  1.0000
  I   I359      1.0  0.25788  0.21300  0.29531  1.0000
  I   I360      1.0  0.49710  0.42761  0.60973  1.0000
  I   I361      1.0  0.78318  0.21210  0.01490  1.0000
  I   I362      1.0  0.42457  0.11079  0.05683  1.0000
  I   I363      1.0  0.05642  0.93353  0.08023  1.0000
  I   I364      1.0  0.30923  0.92729  0.75887  1.0000
  I   I365      1.0  0.46797  0.88388  0.90594  1.0000
  I   I366      1.0  0.01704  0.79482  0.59584  1.0000
  I   I367      1.0  0.55595  0.75672  0.37681  1.0000
  I   I368      1.0  0.99207  0.35909  0.55336  1.0000
  I   I369      1.0  0.22350  0.01534  0.78850  1.0000
  I   I370      1.0  0.49901  0.38095  0.05429  1.0000
  I   I371      1.0  0.68707  0.62303  0.72193  1.0000
  I   I372      1.0  0.18790  0.17127  0.05845  1.0000
  I   I373      1.0  0.15364  0.20050  0.49050  1.0000
  I   I374      1.0  0.56139  0.49597  0.11921  1.0000
  I   I375      1.0  0.29023  0.30181  0.20729  1.0000
  I   I376      1.0  0.57743  0.12421  0.00237  1.0000
  I   I377      1.0  0.42687  0.31589  0.54704  1.0000
  I   I378      1.0  0.13768  0.88930  0.65097  1.0000
  I   I379      1.0  0.15386  0.58589  0.02760  1.0000
  I   I380      1.0  0.37588  0.60346  0.02326  1.0000
  I   I381      1.0  0.12360  0.72999  0.08181  1.0000
  I   I382      1.0  0.89859  0.98598  0.27029  1.0000
  I   I383      1.0  0.75989  0.39389  0.69698  1.0000
  I   I384      1.0  0.55479  0.40221  0.63831  1.0000
