data_image0
_chemical_formula_structural       Ti96I384
_chemical_formula_sum              "Ti96 I384"
_cell_length_a       68.4618
_cell_length_b       68.3283
_cell_length_c       33.4824
_cell_angle_alpha    88.7757
_cell_angle_beta     88.7757
_cell_angle_gamma    62.1586

_space_group_name_H-M_alt    "P 1"
_space_group_IT_number       1

loop_
  _space_group_symop_operation_xyz
  'x, y, z'

loop_
  _atom_site_type_symbol
  _atom_site_label
  _atom_site_symmetry_multiplicity
  _atom_site_fract_x
  _atom_site_fract_y
  _atom_site_fract_z
  _atom_site_occupancy
  Ti  Ti1       1.0  0.10159  0.82457  0.94580  1.0000
  Ti  Ti2       1.0  0.94960  0.08442  0.02072  1.0000
  Ti  Ti3       1.0  0.51618  0.01179  0.00652  1.0000
  Ti  Ti4       1.0  0.85185  0.37274  0.18288  1.0000
  Ti  Ti5       1.0  0.47934  0.85285  0.29794  1.0000
  Ti  Ti6       1.0  0.83694  0.85137  0.08832  1.0000
  Ti  Ti7       1.0  0.96172  0.46524  0.52880  1.0000
  Ti  Ti8       1.0  0.20649  0.76086  0.42438  1.0000
  Ti  Ti9       1.0  0.20777  0.05543  0.93695  1.0000
  Ti  Ti10      1.0  0.02025  0.69237  0.51898  1.0000
  Ti  Ti11      1.0  0.28141  0.23284  0.54652  1.0000
  Ti  Ti12      1.0  0.13922  0.60846  0.87109  1.0000
  Ti  Ti13      1.0  0.90099  0.13449  0.45714  1.0000
  Ti  Ti14      1.0  0.01669  0.98588  0.71418  1.0000
  Ti  Ti15      1.0  0.85874  0.90826  0.38511  1.0000
  Ti  Ti16      1.0  0.06105  0.70804  0.47315  1.0000
  Ti  Ti17      1.0  0.31779  0.00178  0.46384  1.0000
  Ti  Ti18      1.0  0.56837  0.81495  0.79049  1.0000
  Ti  Ti19      1.0  0.53100  0.64100  0.72644  1.0000
  Ti  Ti20      1.0  0.21804  0.12118  0.66998  1.0000
  Ti  Ti21      1.0  0.21027  0.78736  0.33688  1.0000
  Ti  Ti22      1.0  0.60759  0.85277  0.31441  1.0000
  Ti  Ti23      1.0  0.41455  0.16125  0.43597  1.0000
  Ti  Ti24      1.0  0.21546  0.80949  0.82385  1.0000
  Ti  Ti25      1.0  0.47357  0.91870  0.45118  1.0000
  Ti  Ti26      1.0  0.34941  0.77098  0.91015  1.0000
  Ti  Ti27      1.0  0.73609  0.23149  0.66767  1.0000
  Ti  Ti28      1.0  0.77073  0.59229  0.31198  1.0000
  Ti  Ti29      1.0  0.06656  0.77556  0.22719  1.0000
  Ti  Ti30      1.0  0.42720  0.94794  0.86273  1.0000
  Ti  Ti31      1.0  0.21906  0.43131  0.15726  1.0000
  Ti  Ti32      1.0  0.00849  0.21067  0.79053  1.0000
  Ti  Ti33      1.0  0.13146  0.87384  0.59538  1.0000
  Ti  Ti34      1.0  0.31384  0.31324  0.37063  1.0000
  Ti  Ti35      1.0  0.73617  0.57158  0.51480  1.0000
  Ti  Ti36      1.0  0.10071  0.08687  0.08315  1.0000
  Ti  Ti37      1.0  0.18189  0.28792  0.37102  1.0000
  Ti  Ti38      1.0  0.39324  0.41122  0.11899  1.0000
  Ti  Ti39      1.0  0.87615  0.58012  0.25679  1.0000
  Ti  Ti40      1.0  0.21034  0.36293  0.65890  1.0000
  Ti  Ti41      1.0  0.48239  0.41591  0.58357  1.0000
  Ti  Ti42      1.0  0.14563  0.10470  0.38242  1.0000
  Ti  Ti43      1.0  0.28467  0.96561  0.11791  1.0000
  Ti  Ti44      1.0  0.79742  0.64750  0.64074  1.0000
  Ti  Ti45      1.0  0.17843  0.68240  0.39977  1.0000
  Ti  Ti46      1.0  0.75283  0.31739  0.48801  1.0000
  Ti  Ti47      1.0  0.31270  0.57346  0.57019  1.0000
  Ti  Ti48      1.0  0.79199  0.05192  0.23009  1.0000
  Ti  Ti49      1.0  0.00021  0.19803  0.34899  1.0000
  Ti  Ti50      1.0  0.08160  0.33207  0.65426  1.0000
  Ti  Ti51      1.0  0.92829  0.14935  0.09309  1.0000
  Ti  Ti52      1.0  0.80182  0.14780  0.44327  1.0000
  Ti  Ti53      1.0  0.41094  0.71168  0.39830  1.0000
  Ti  Ti54      1.0  0.82982  0.88540  0.15760  1.0000
  Ti  Ti55      1.0  0.93166  0.42636  0.59312  1.0000
  Ti  Ti56      1.0  0.90482  0.38122  0.92329  1.0000
  Ti  Ti57      1.0  0.22990  0.08836  0.91260  1.0000
  Ti  Ti58      1.0  0.63302  0.31600  0.61715  1.0000
  Ti  Ti59      1.0  0.38848  0.27188  0.12386  1.0000
  Ti  Ti60      1.0  0.19954  0.57727  0.92960  1.0000
  Ti  Ti61      1.0  0.91147  0.91225  0.42398  1.0000
  Ti  Ti62      1.0  0.87999  0.11354  0.37967  1.0000
  Ti  Ti63      1.0  0.00648  0.93403  0.72777  1.0000
  Ti  Ti64      1.0  0.60564  0.83691  0.83526  1.0000
  Ti  Ti65      1.0  0.69280  0.01303  0.88804  1.0000
  Ti  Ti66      1.0  0.48172  0.12764  0.98340  1.0000
  Ti  Ti67      1.0  0.50670  0.68498  0.82078  1.0000
  Ti  Ti68      1.0  0.64601  0.59712  0.87138  1.0000
  Ti  Ti69      1.0  0.33074  0.84766  0.93312  1.0000
  Ti  Ti70      1.0  0.33791  0.94082  0.16774  1.0000
  Ti  Ti71      1.0  0.37324  0.16200  0.37382  1.0000
  Ti  Ti72      1.0  0.15457  0.24078  0.13415  1.0000
  Ti  Ti73      1.0  0.76827  0.22862  0.74533  1.0000
  Ti  Ti74      1.0  0.51472  0.95077  0.47369  1.0000
  Ti  Ti75      1.0  0.37748  0.74796  0.78431  1.0000
  Ti  Ti76      1.0  0.36503  0.96401  0.79295  1.0000
  Ti  Ti77      1.0  0.72581  0.58269  0.24457  1.0000
  Ti  Ti78      1.0  0.00917  0.81858  0.20222  1.0000
  Ti  Ti79      1.0  0.70294  0.44314  0.97604  1.0000
  Ti  Ti80      1.0  0.87368  0.33046  0.28497  1.0000
  Ti  Ti81      1.0  0.96107  0.25269  0.78951  1.0000
  Ti  Ti82      1.0  0.32303  0.36699  0.46270  1.0000
  Ti  Ti83      1.0  0.70443  0.58764  0.60681  1.0000
  Ti  Ti84      1.0  0.12022  0.08690  0.16393  1.0000
  Ti  Ti85      1.0  0.14096  0.29685  0.33112  1.0000
  Ti  Ti86      1.0  0.43741  0.17426  0.90240  1.0000
  Ti  Ti87      1.0  0.93930  0.55484  0.24402  1.0000
  Ti  Ti88      1.0  0.56407  0.32165  0.39881  1.0000
  Ti  Ti89      1.0  0.48671  0.38481  0.65682  1.0000
  Ti  Ti90      1.0  0.14118  0.08334  0.50057  1.0000
  Ti  Ti91      1.0  0.21869  0.71806  0.75012  1.0000
  Ti  Ti92      1.0  0.31275  0.61536  0.00003  1.0000
  Ti  Ti93      1.0  0.94507  0.65911  0.06916  1.0000
  Ti  Ti94      1.0  0.75250  0.10528  0.23490  1.0000
  Ti  Ti95      1.0  0.75311  0.36674  0.47674  1.0000
  Ti  Ti96      1.0  0.34204  0.58417  0.46442  1.0000
  I   I1        1.0  0.34331  0.56887  0.62169  1.0000
  I   I2        1.0  0.93195  0.18439  0.08073  1.0000
  I   I3        1.0  0.04234  0.17795  0.33763  1.0000
  I   I4        1.0  0.40212  0.74812  0.43852  1.0000
  I   I5        1.0  0.80886  0.83804  0.06980  1.0000
  I   I6        1.0  0.83429  0.92301  0.16306  1.0000
  I   I7        1.0  0.17830  0.78109  0.48514  1.0000
  I   I8        1.0  0.88083  0.42564  0.93388  1.0000
  I   I9        1.0  0.27097  0.05774  0.90998  1.0000
  I   I10       1.0  0.03437  0.71391  0.56161  1.0000
  I   I11       1.0  0.31180  0.24597  0.52179  1.0000
  I   I12       1.0  0.50569  0.83555  0.23482  1.0000
  I   I13       1.0  0.88123  0.15321  0.38159  1.0000
  I   I14       1.0  0.98180  0.99954  0.75530  1.0000
  I   I15       1.0  0.81934  0.93463  0.40256  1.0000
  I   I16       1.0  0.09561  0.70129  0.51068  1.0000
  I   I17       1.0  0.47631  0.15732  0.03591  1.0000
  I   I18       1.0  0.58966  0.83963  0.75991  1.0000
  I   I19       1.0  0.19063  0.12356  0.61348  1.0000
  I   I20       1.0  0.28435  0.23002  0.62216  1.0000
  I   I21       1.0  0.24069  0.77324  0.27545  1.0000
  I   I22       1.0  0.43794  0.18328  0.40648  1.0000
  I   I23       1.0  0.37486  0.19676  0.44155  1.0000
  I   I24       1.0  0.32887  0.95004  0.24202  1.0000
  I   I25       1.0  0.49582  0.99252  0.48629  1.0000
  I   I26       1.0  0.42103  0.73163  0.79081  1.0000
  I   I27       1.0  0.79747  0.24017  0.71270  1.0000
  I   I28       1.0  0.79995  0.55958  0.35432  1.0000
  I   I29       1.0  0.04193  0.75822  0.20012  1.0000
  I   I30       1.0  0.42179  0.96690  0.93105  1.0000
  I   I31       1.0  0.90822  0.29268  0.29003  1.0000
  I   I32       1.0  0.97222  0.20537  0.81730  1.0000
  I   I33       1.0  0.73016  0.42551  0.03688  1.0000
  I   I34       1.0  0.74428  0.60108  0.49064  1.0000
  I   I35       1.0  0.06648  0.12573  0.06003  1.0000
  I   I36       1.0  0.34335  0.32057  0.33097  1.0000
  I   I37       1.0  0.12148  0.28669  0.27366  1.0000
  I   I38       1.0  0.97071  0.51366  0.25110  1.0000
  I   I39       1.0  0.17017  0.25248  0.33798  1.0000
  I   I40       1.0  0.44510  0.44384  0.55418  1.0000
  I   I41       1.0  0.13104  0.12985  0.44801  1.0000
  I   I42       1.0  0.24976  0.32877  0.67552  1.0000
  I   I43       1.0  0.65840  0.32027  0.66670  1.0000
  I   I44       1.0  0.79764  0.61368  0.61187  1.0000
  I   I45       1.0  0.17020  0.69548  0.47606  1.0000
  I   I46       1.0  0.70617  0.38774  0.46493  1.0000
  I   I47       1.0  0.28774  0.55195  0.56359  1.0000
  I   I48       1.0  0.80771  0.00770  0.23427  1.0000
  I   I49       1.0  0.98866  0.19622  0.42487  1.0000
  I   I50       1.0  0.88915  0.15412  0.10654  1.0000
  I   I51       1.0  0.94093  0.13199  0.01434  1.0000
  I   I52       1.0  0.87289  0.33005  0.19234  1.0000
  I   I53       1.0  0.42503  0.71869  0.33065  1.0000
  I   I54       1.0  0.79974  0.90685  0.21750  1.0000
  I   I55       1.0  0.97021  0.48804  0.58076  1.0000
  I   I56       1.0  0.18537  0.79151  0.27581  1.0000
  I   I57       1.0  0.19242  0.03010  0.91700  1.0000
  I   I58       1.0  0.02777  0.65400  0.53780  1.0000
  I   I59       1.0  0.39166  0.23262  0.12628  1.0000
  I   I60       1.0  0.22001  0.53572  0.90483  1.0000
  I   I61       1.0  0.89248  0.10191  0.47335  1.0000
  I   I62       1.0  0.87712  0.15760  0.51814  1.0000
  I   I63       1.0  0.03711  0.94848  0.76005  1.0000
  I   I64       1.0  0.01929  0.72414  0.45541  1.0000
  I   I65       1.0  0.70723  0.97699  0.93553  1.0000
  I   I66       1.0  0.46544  0.10328  0.01141  1.0000
  I   I67       1.0  0.49273  0.65990  0.78175  1.0000
  I   I68       1.0  0.24162  0.13606  0.63221  1.0000
  I   I69       1.0  0.29023  0.87738  0.94711  1.0000
  I   I70       1.0  0.31996  0.91559  0.15273  1.0000
  I   I71       1.0  0.42528  0.13782  0.37124  1.0000
  I   I72       1.0  0.15027  0.27318  0.09079  1.0000
  I   I73       1.0  0.77322  0.19367  0.67974  1.0000
  I   I74       1.0  0.38644  0.74412  0.93960  1.0000
  I   I75       1.0  0.37805  0.77693  0.84877  1.0000
  I   I76       1.0  0.76901  0.55707  0.25434  1.0000
  I   I77       1.0  0.71264  0.56748  0.30428  1.0000
  I   I78       1.0  0.09833  0.84319  0.87748  1.0000
  I   I79       1.0  0.09277  0.90196  0.57570  1.0000
  I   I80       1.0  0.21590  0.41326  0.21977  1.0000
  I   I81       1.0  0.03855  0.16840  0.78962  1.0000
  I   I82       1.0  0.36595  0.35088  0.47916  1.0000
  I   I83       1.0  0.67309  0.57659  0.61528  1.0000
  I   I84       1.0  0.08844  0.05733  0.04613  1.0000
  I   I85       1.0  0.13928  0.29606  0.41205  1.0000
  I   I86       1.0  0.46416  0.19099  0.90774  1.0000
  I   I87       1.0  0.84014  0.62159  0.28240  1.0000
  I   I88       1.0  0.18975  0.36699  0.72474  1.0000
  I   I89       1.0  0.49818  0.34278  0.62471  1.0000
  I   I90       1.0  0.13335  0.04998  0.51030  1.0000
  I   I91       1.0  0.19565  0.76058  0.72461  1.0000
  I   I92       1.0  0.35155  0.60723  0.97707  1.0000
  I   I93       1.0  0.81826  0.65536  0.70099  1.0000
  I   I94       1.0  0.77354  0.08150  0.16446  1.0000
  I   I95       1.0  0.79144  0.27500  0.48641  1.0000
  I   I96       1.0  0.38081  0.56664  0.41864  1.0000
  I   I97       1.0  0.53811  0.03507  0.01814  1.0000
  I   I98       1.0  0.06479  0.82415  0.96096  1.0000
  I   I99       1.0  0.91114  0.10056  0.98413  1.0000
  I   I100      1.0  0.88408  0.37870  0.15244  1.0000
  I   I101      1.0  0.79819  0.18896  0.43688  1.0000
  I   I102      1.0  0.44821  0.84263  0.32141  1.0000
  I   I103      1.0  0.96286  0.38584  0.58512  1.0000
  I   I104      1.0  0.99967  0.43876  0.49858  1.0000
  I   I105      1.0  0.17178  0.10257  0.92357  1.0000
  I   I106      1.0  0.10762  0.65035  0.88238  1.0000
  I   I107      1.0  0.98070  0.70322  0.48719  1.0000
  I   I108      1.0  0.13033  0.61389  0.79767  1.0000
  I   I109      1.0  0.86042  0.87443  0.41752  1.0000
  I   I110      1.0  0.88111  0.11653  0.30165  1.0000
  I   I111      1.0  0.99501  0.93688  0.80577  1.0000
  I   I112      1.0  0.62053  0.86256  0.80196  1.0000
  I   I113      1.0  0.70649  0.03700  0.93244  1.0000
  I   I114      1.0  0.34947  0.01571  0.45645  1.0000
  I   I115      1.0  0.54301  0.64360  0.85088  1.0000
  I   I116      1.0  0.47217  0.70065  0.86671  1.0000
  I   I117      1.0  0.66981  0.56897  0.81563  1.0000
  I   I118      1.0  0.61169  0.81484  0.33583  1.0000
  I   I119      1.0  0.36141  0.95375  0.11853  1.0000
  I   I120      1.0  0.17823  0.23492  0.20298  1.0000
  I   I121      1.0  0.75227  0.24218  0.82454  1.0000
  I   I122      1.0  0.43871  0.91879  0.49643  1.0000
  I   I123      1.0  0.34559  0.74310  0.84598  1.0000
  I   I124      1.0  0.38164  0.98523  0.83580  1.0000
  I   I125      1.0  0.77306  0.61452  0.37359  1.0000
  I   I126      1.0  0.03249  0.80680  0.27518  1.0000
  I   I127      1.0  0.13843  0.85620  0.52650  1.0000
  I   I128      1.0  0.82158  0.36788  0.23814  1.0000
  I   I129      1.0  0.99797  0.24056  0.85938  1.0000
  I   I130      1.0  0.13458  0.07625  0.03393  1.0000
  I   I131      1.0  0.30885  0.35646  0.39458  1.0000
  I   I132      1.0  0.68326  0.63256  0.58220  1.0000
  I   I133      1.0  0.88497  0.55163  0.31762  1.0000
  I   I134      1.0  0.37355  0.38800  0.10763  1.0000
  I   I135      1.0  0.39918  0.21082  0.91126  1.0000
  I   I136      1.0  0.17511  0.07045  0.44165  1.0000
  I   I137      1.0  0.57530  0.32478  0.32301  1.0000
  I   I138      1.0  0.48227  0.38152  0.52989  1.0000
  I   I139      1.0  0.19436  0.70636  0.71354  1.0000
  I   I140      1.0  0.31939  0.58033  0.04098  1.0000
  I   I141      1.0  0.91004  0.65394  0.06417  1.0000
  I   I142      1.0  0.74980  0.06262  0.24714  1.0000
  I   I143      1.0  0.72915  0.29900  0.51606  1.0000
  I   I144      1.0  0.34187  0.62598  0.47370  1.0000
  I   I145      1.0  0.11039  0.84338  0.00005  1.0000
  I   I146      1.0  0.95411  0.04672  0.05196  1.0000
  I   I147      1.0  0.53279  0.97612  0.96812  1.0000
  I   I148      1.0  0.83286  0.10149  0.45345  1.0000
  I   I149      1.0  0.45751  0.89547  0.31564  1.0000
  I   I150      1.0  0.86835  0.81061  0.09815  1.0000
  I   I151      1.0  0.90892  0.40422  0.58691  1.0000
  I   I152      1.0  0.20232  0.73753  0.36057  1.0000
  I   I153      1.0  0.23530  0.11069  0.85443  1.0000
  I   I154      1.0  0.25003  0.00429  0.10169  1.0000
  I   I155      1.0  0.24418  0.26652  0.53919  1.0000
  I   I156      1.0  0.21130  0.55993  0.00273  1.0000
  I   I157      1.0  0.86100  0.90593  0.30764  1.0000
  I   I158      1.0  0.96841  0.93926  0.70721  1.0000
  I   I159      1.0  0.93563  0.87456  0.45991  1.0000
  I   I160      1.0  0.59360  0.78626  0.73966  1.0000
  I   I161      1.0  0.33268  0.95930  0.47885  1.0000
  I   I162      1.0  0.58398  0.78725  0.84997  1.0000
  I   I163      1.0  0.52093  0.66785  0.66357  1.0000
  I   I164      1.0  0.68020  0.59730  0.90720  1.0000
  I   I165      1.0  0.23788  0.77528  0.40733  1.0000
  I   I166      1.0  0.58893  0.88142  0.37279  1.0000
  I   I167      1.0  0.38160  0.13784  0.30754  1.0000
  I   I168      1.0  0.17929  0.84206  0.84670  1.0000
  I   I169      1.0  0.47487  0.95047  0.50638  1.0000
  I   I170      1.0  0.55368  0.94469  0.46369  1.0000
  I   I171      1.0  0.75514  0.23208  0.60136  1.0000
  I   I172      1.0  0.34694  0.93856  0.76771  1.0000
  I   I173      1.0  0.99726  0.81210  0.13484  1.0000
  I   I174      1.0  0.39883  0.93099  0.83681  1.0000
  I   I175      1.0  0.25861  0.42608  0.13150  1.0000
  I   I176      1.0  0.03795  0.21903  0.75057  1.0000
  I   I177      1.0  0.71705  0.46725  0.94136  1.0000
  I   I178      1.0  0.32570  0.33145  0.50246  1.0000
  I   I179      1.0  0.74362  0.54162  0.58084  1.0000
  I   I180      1.0  0.11401  0.09299  0.23894  1.0000
  I   I181      1.0  0.17854  0.30590  0.30153  1.0000
  I   I182      1.0  0.48988  0.12363  0.90305  1.0000
  I   I183      1.0  0.96114  0.57225  0.20344  1.0000
  I   I184      1.0  0.59611  0.32504  0.43371  1.0000
  I   I185      1.0  0.49918  0.42818  0.52348  1.0000
  I   I186      1.0  0.11829  0.12665  0.32344  1.0000
  I   I187      1.0  0.29987  0.64601  0.05442  1.0000
  I   I188      1.0  0.81219  0.66183  0.58214  1.0000
  I   I189      1.0  0.17063  0.64733  0.41983  1.0000
  I   I190      1.0  0.73563  0.32765  0.41842  1.0000
  I   I191      1.0  0.05677  0.34855  0.58515  1.0000
  I   I192      1.0  0.83487  0.04518  0.22682  1.0000
  I   I193      1.0  0.09167  0.75741  0.29024  1.0000
  I   I194      1.0  0.09044  0.30090  0.70023  1.0000
  I   I195      1.0  0.47889  0.04075  0.98355  1.0000
  I   I196      1.0  0.81990  0.41258  0.16826  1.0000
  I   I197      1.0  0.65938  0.28599  0.55963  1.0000
  I   I198      1.0  0.84246  0.86628  0.00583  1.0000
  I   I199      1.0  0.92167  0.47041  0.55463  1.0000
  I   I200      1.0  0.89612  0.34828  0.93153  1.0000
  I   I201      1.0  0.19440  0.06403  0.01080  1.0000
  I   I202      1.0  0.42915  0.26945  0.11853  1.0000
  I   I203      1.0  0.33501  0.86384  0.86285  1.0000
  I   I204      1.0  0.18959  0.58463  0.84531  1.0000
  I   I205      1.0  0.94111  0.12207  0.47330  1.0000
  I   I206      1.0  0.03194  0.89311  0.71774  1.0000
  I   I207      1.0  0.87168  0.94629  0.38975  1.0000
  I   I208      1.0  0.08058  0.70282  0.40217  1.0000
  I   I209      1.0  0.32549  0.99331  0.38546  1.0000
  I   I210      1.0  0.53012  0.82596  0.75905  1.0000
  I   I211      1.0  0.54489  0.67106  0.76138  1.0000
  I   I212      1.0  0.24293  0.07914  0.66596  1.0000
  I   I213      1.0  0.34774  0.86391  0.98492  1.0000
  I   I214      1.0  0.64753  0.84943  0.30828  1.0000
  I   I215      1.0  0.36679  0.19847  0.33244  1.0000
  I   I216      1.0  0.24919  0.80724  0.87127  1.0000
  I   I217      1.0  0.44523  0.94910  0.41036  1.0000
  I   I218      1.0  0.37845  0.71449  0.75169  1.0000
  I   I219      1.0  0.70776  0.22229  0.62475  1.0000
  I   I220      1.0  0.72515  0.61362  0.30256  1.0000
  I   I221      1.0  0.10239  0.74957  0.18890  1.0000
  I   I222      1.0  0.45132  0.96126  0.82527  1.0000
  I   I223      1.0  0.21560  0.40718  0.10139  1.0000
  I   I224      1.0  0.98293  0.22187  0.71422  1.0000
  I   I225      1.0  0.14661  0.88368  0.66379  1.0000
  I   I226      1.0  0.32353  0.40383  0.42893  1.0000
  I   I227      1.0  0.72820  0.58198  0.67527  1.0000
  I   I228      1.0  0.10757  0.12938  0.12490  1.0000
  I   I229      1.0  0.17507  0.31754  0.42384  1.0000
  I   I230      1.0  0.35766  0.44929  0.10786  1.0000
  I   I231      1.0  0.84776  0.56894  0.22699  1.0000
  I   I232      1.0  0.02805  0.00788  0.77416  1.0000
  I   I233      1.0  0.52366  0.38085  0.60961  1.0000
  I   I234      1.0  0.16380  0.08404  0.55975  1.0000
  I   I235      1.0  0.26452  0.94916  0.16889  1.0000
  I   I236      1.0  0.93642  0.68884  0.01563  1.0000
  I   I237      1.0  0.21216  0.70916  0.82227  1.0000
  I   I238      1.0  0.76766  0.37058  0.40402  1.0000
  I   I239      1.0  0.32284  0.58688  0.39701  1.0000
  I   I240      1.0  0.79806  0.08237  0.27992  1.0000
  I   I241      1.0  0.97709  0.23898  0.31753  1.0000
  I   I242      1.0  0.93257  0.10513  0.09713  1.0000
  I   I243      1.0  0.51451  0.00419  0.08351  1.0000
  I   I244      1.0  0.76861  0.14699  0.39689  1.0000
  I   I245      1.0  0.44108  0.67710  0.42925  1.0000
  I   I246      1.0  0.82822  0.84411  0.16922  1.0000
  I   I247      1.0  0.92415  0.43764  0.66584  1.0000
  I   I248      1.0  0.17948  0.80293  0.39133  1.0000
  I   I249      1.0  0.22322  0.05803  0.85959  1.0000
  I   I250      1.0  0.37553  0.30079  0.06300  1.0000
  I   I251      1.0  0.29424  0.19695  0.50353  1.0000
  I   I252      1.0  0.15445  0.58819  0.94118  1.0000
  I   I253      1.0  0.88505  0.07363  0.38357  1.0000
  I   I254      1.0  0.01501  0.95252  0.65452  1.0000
  I   I255      1.0  0.91760  0.87846  0.36206  1.0000
  I   I256      1.0  0.66392  0.99898  0.87274  1.0000
  I   I257      1.0  0.27661  0.01674  0.47578  1.0000
  I   I258      1.0  0.60004  0.84764  0.91059  1.0000
  I   I259      1.0  0.49922  0.72078  0.77656  1.0000
  I   I260      1.0  0.62045  0.58709  0.91573  1.0000
  I   I261      1.0  0.23170  0.72370  0.46407  1.0000
  I   I262      1.0  0.58879  0.85724  0.23798  1.0000
  I   I263      1.0  0.33244  0.16797  0.38961  1.0000
  I   I264      1.0  0.22272  0.80784  0.74661  1.0000
  I   I265      1.0  0.52517  0.90557  0.47626  1.0000
  I   I266      1.0  0.34634  0.80901  0.97046  1.0000
  I   I267      1.0  0.79339  0.19125  0.79322  1.0000
  I   I268      1.0  0.69476  0.62218  0.22029  1.0000
  I   I269      1.0  0.99824  0.86154  0.21499  1.0000
  I   I270      1.0  0.36858  0.98085  0.72685  1.0000
  I   I271      1.0  0.19017  0.47592  0.14942  1.0000
  I   I272      1.0  0.93528  0.26322  0.85278  1.0000
  I   I273      1.0  0.12197  0.84925  0.64270  1.0000
  I   I274      1.0  0.29863  0.30695  0.43886  1.0000
  I   I275      1.0  0.74327  0.59547  0.58786  1.0000
  I   I276      1.0  0.16523  0.07297  0.16028  1.0000
  I   I277      1.0  0.30843  0.39576  0.52458  1.0000
  I   I278      1.0  0.41894  0.40865  0.17612  1.0000
  I   I279      1.0  0.90790  0.54518  0.20820  1.0000
  I   I280      1.0  0.52575  0.35027  0.42677  1.0000
  I   I281      1.0  0.44447  0.39925  0.66852  1.0000
  I   I282      1.0  0.12629  0.08084  0.39632  1.0000
  I   I283      1.0  0.29491  0.94648  0.04361  1.0000
  I   I284      1.0  0.95514  0.65869  0.14490  1.0000
  I   I285      1.0  0.15612  0.71534  0.35325  1.0000
  I   I286      1.0  0.78899  0.33083  0.50713  1.0000
  I   I287      1.0  0.30372  0.60790  0.50820  1.0000
  I   I288      1.0  0.76003  0.13938  0.22333  1.0000
  I   I289      1.0  0.97655  0.18298  0.31478  1.0000
  I   I290      1.0  0.11675  0.33424  0.62083  1.0000
  I   I291      1.0  0.93560  0.15800  0.16844  1.0000
  I   I292      1.0  0.77837  0.15336  0.51499  1.0000
  I   I293      1.0  0.37218  0.71545  0.41524  1.0000
  I   I294      1.0  0.86689  0.86640  0.11102  1.0000
  I   I295      1.0  0.94642  0.49458  0.47287  1.0000
  I   I296      1.0  0.91507  0.38056  0.84545  1.0000
  I   I297      1.0  0.22597  0.11059  0.96954  1.0000
  I   I298      1.0  0.61074  0.34764  0.57201  1.0000
  I   I299      1.0  0.06912  0.66857  0.50268  1.0000
  I   I300      1.0  0.23205  0.58940  0.91835  1.0000
  I   I301      1.0  0.91645  0.94784  0.43718  1.0000
  I   I302      1.0  0.92570  0.10044  0.39073  1.0000
  I   I303      1.0  0.20681  0.40190  0.65401  1.0000
  I   I304      1.0  0.64711  0.81254  0.83871  1.0000
  I   I305      1.0  0.05436  0.75035  0.47478  1.0000
  I   I306      1.0  0.52376  0.09808  0.99988  1.0000
  I   I307      1.0  0.56943  0.61843  0.69458  1.0000
  I   I308      1.0  0.19529  0.14663  0.72990  1.0000
  I   I309      1.0  0.21232  0.82503  0.33418  1.0000
  I   I310      1.0  0.37683  0.90584  0.17578  1.0000
  I   I311      1.0  0.42614  0.14551  0.51014  1.0000
  I   I312      1.0  0.11160  0.25790  0.13978  1.0000
  I   I313      1.0  0.73403  0.26582  0.70101  1.0000
  I   I314      1.0  0.49192  0.88223  0.41066  1.0000
  I   I315      1.0  0.36666  0.78294  0.74497  1.0000
  I   I316      1.0  0.32369  0.98715  0.81645  1.0000
  I   I317      1.0  0.78335  0.60439  0.24854  1.0000
  I   I318      1.0  0.97872  0.80738  0.22822  1.0000
  I   I319      1.0  0.69211  0.41911  0.92295  1.0000
  I   I320      1.0  0.88625  0.36069  0.25452  1.0000
  I   I321      1.0  0.97235  0.28222  0.76253  1.0000
  I   I322      1.0  0.29406  0.31757  0.30386  1.0000
  I   I323      1.0  0.69503  0.58501  0.50763  1.0000
  I   I324      1.0  0.07191  0.09555  0.15791  1.0000
  I   I325      1.0  0.21616  0.24789  0.38888  1.0000
  I   I326      1.0  0.43722  0.17066  0.82563  1.0000
  I   I327      1.0  0.90526  0.60148  0.26391  1.0000
  I   I328      1.0  0.21709  0.35951  0.57827  1.0000
  I   I329      1.0  0.48037  0.42800  0.65837  1.0000
  I   I330      1.0  0.18082  0.10097  0.34385  1.0000
  I   I331      1.0  0.21551  0.66197  0.36406  1.0000
  I   I332      1.0  0.60149  0.30852  0.64774  1.0000
  I   I333      1.0  0.75405  0.67336  0.63308  1.0000
  I   I334      1.0  0.72714  0.11132  0.30205  1.0000
  I   I335      1.0  0.73822  0.35281  0.53994  1.0000
  I   I336      1.0  0.34225  0.54848  0.51052  1.0000
  I   I337      1.0  0.12097  0.78062  0.94133  1.0000
  I   I338      1.0  0.07510  0.36464  0.69814  1.0000
  I   I339      1.0  0.99454  0.07133  0.99188  1.0000
  I   I340      1.0  0.84356  0.31687  0.31787  1.0000
  I   I341      1.0  0.51947  0.83369  0.33220  1.0000
  I   I342      1.0  0.79277  0.90228  0.11346  1.0000
  I   I343      1.0  0.97408  0.43221  0.59647  1.0000
  I   I344      1.0  0.94462  0.36815  0.94859  1.0000
  I   I345      1.0  0.24938  0.03007  0.95162  1.0000
  I   I346      1.0  0.29947  0.98814  0.15842  1.0000
  I   I347      1.0  0.37213  0.29311  0.19085  1.0000
  I   I348      1.0  0.10727  0.59983  0.88577  1.0000
  I   I349      1.0  0.87875  0.91210  0.46741  1.0000
  I   I350      1.0  0.83035  0.14083  0.38511  1.0000
  I   I351      1.0  0.03402  0.99280  0.64901  1.0000
  I   I352      1.0  0.55797  0.84926  0.84505  1.0000
  I   I353      1.0  0.70402  0.01699  0.81197  1.0000
  I   I354      1.0  0.42637  0.15174  0.95757  1.0000
  I   I355      1.0  0.52590  0.60675  0.72463  1.0000
  I   I356      1.0  0.62019  0.63651  0.84939  1.0000
  I   I357      1.0  0.32622  0.81638  0.87976  1.0000
  I   I358      1.0  0.21633  0.77183  0.82794  1.0000
  I   I359      1.0  0.38763  0.14183  0.44905  1.0000
  I   I360      1.0  0.17857  0.20944  0.08258  1.0000
  I   I361      1.0  0.72368  0.22245  0.74697  1.0000
  I   I362      1.0  0.50508  0.94850  0.40160  1.0000
  I   I363      1.0  0.32231  0.76279  0.95434  1.0000
  I   I364      1.0  0.45264  0.90891  0.89179  1.0000
  I   I365      1.0  0.72665  0.56196  0.17499  1.0000
  I   I366      1.0  0.05566  0.81247  0.18366  1.0000
  I   I367      1.0  0.67206  0.47357  0.01599  1.0000
  I   I368      1.0  0.87589  0.33859  0.36156  1.0000
  I   I369      1.0  0.92377  0.27089  0.75202  1.0000
  I   I370      1.0  0.33723  0.27279  0.37738  1.0000
  I   I371      1.0  0.76697  0.52964  0.48830  1.0000
  I   I372      1.0  0.11733  0.05410  0.13980  1.0000
  I   I373      1.0  0.10108  0.33256  0.34129  1.0000
  I   I374      1.0  0.41451  0.40730  0.05286  1.0000
  I   I375      1.0  0.94400  0.56704  0.31733  1.0000
  I   I376      1.0  0.57130  0.28303  0.41658  1.0000
  I   I377      1.0  0.50711  0.35528  0.71836  1.0000
  I   I378      1.0  0.10586  0.11271  0.54505  1.0000
  I   I379      1.0  0.25582  0.70328  0.71182  1.0000
  I   I380      1.0  0.29967  0.61697  0.92459  1.0000
  I   I381      1.0  0.97801  0.62263  0.04788  1.0000
  I   I382      1.0  0.71676  0.13289  0.19322  1.0000
  I   I383      1.0  0.75005  0.40501  0.50693  1.0000
  I   I384      1.0  0.27969  0.59763  0.61797  1.0000
