data_image0
_chemical_formula_structural       Ti96I384
_chemical_formula_sum              "Ti96 I384"
_cell_length_a       43.4801
_cell_length_b       43.1869
_cell_length_c       22.4966
_cell_angle_alpha    88.7757
_cell_angle_beta     88.7757
_cell_angle_gamma    62.1586

_space_group_name_H-M_alt    "P 1"
_space_group_IT_number       1

loop_
  _space_group_symop_operation_xyz
  'x, y, z'

loop_
  _atom_site_type_symbol
  _atom_site_label
  _atom_site_symmetry_multiplicity
  _atom_site_fract_x
  _atom_site_fract_y
  _atom_site_fract_z
  _atom_site_occupancy
  Ti  Ti1       1.0  0.33739  0.06198  0.95113  1.0000
  Ti  Ti2       1.0  0.22016  0.06457  0.36071  1.0000
  Ti  Ti3       1.0  0.31227  0.08990  0.63019  1.0000
  Ti  Ti4       1.0  0.16046  0.35024  0.17617  1.0000
  Ti  Ti5       1.0  0.16032  0.35312  0.52628  1.0000
  Ti  Ti6       1.0  0.16714  0.34463  0.86348  1.0000
  Ti  Ti7       1.0  0.06770  0.64630  0.49088  1.0000
  Ti  Ti8       1.0  0.05169  0.65424  0.83756  1.0000
  Ti  Ti9       1.0  0.05896  0.65000  0.15685  1.0000
  Ti  Ti10      1.0  0.06210  0.87720  0.25970  1.0000
  Ti  Ti11      1.0  0.08673  0.87004  0.61873  1.0000
  Ti  Ti12      1.0  0.06101  0.85576  0.93108  1.0000
  Ti  Ti13      1.0  0.56291  0.04612  0.25042  1.0000
  Ti  Ti14      1.0  0.56792  0.02647  0.58892  1.0000
  Ti  Ti15      1.0  0.54243  0.05467  0.91425  1.0000
  Ti  Ti16      1.0  0.36284  0.35771  0.47985  1.0000
  Ti  Ti17      1.0  0.33396  0.44253  0.78182  1.0000
  Ti  Ti18      1.0  0.37828  0.36617  0.14221  1.0000
  Ti  Ti19      1.0  0.42809  0.64566  0.51507  1.0000
  Ti  Ti20      1.0  0.33505  0.65593  0.86911  1.0000
  Ti  Ti21      1.0  0.31746  0.66745  0.29721  1.0000
  Ti  Ti22      1.0  0.24584  0.92590  0.79887  1.0000
  Ti  Ti23      1.0  0.39651  0.89524  0.21458  1.0000
  Ti  Ti24      1.0  0.45302  0.82399  0.81817  1.0000
  Ti  Ti25      1.0  0.62552  0.20267  0.45707  1.0000
  Ti  Ti26      1.0  0.60351  0.21793  0.79155  1.0000
  Ti  Ti27      1.0  0.61877  0.21302  0.11465  1.0000
  Ti  Ti28      1.0  0.60788  0.41896  0.12713  1.0000
  Ti  Ti29      1.0  0.61051  0.40962  0.44039  1.0000
  Ti  Ti30      1.0  0.62197  0.39683  0.79716  1.0000
  Ti  Ti31      1.0  0.67778  0.55959  0.16023  1.0000
  Ti  Ti32      1.0  0.70709  0.52836  0.48473  1.0000
  Ti  Ti33      1.0  0.70351  0.51803  0.83657  1.0000
  Ti  Ti34      1.0  0.71069  0.76438  0.28905  1.0000
  Ti  Ti35      1.0  0.70332  0.75595  0.62037  1.0000
  Ti  Ti36      1.0  0.69993  0.76025  0.95434  1.0000
  Ti  Ti37      1.0  0.83568  0.09875  0.27354  1.0000
  Ti  Ti38      1.0  0.85299  0.11252  0.60531  1.0000
  Ti  Ti39      1.0  0.84277  0.09656  0.91393  1.0000
  Ti  Ti40      1.0  0.96905  0.28403  0.02484  1.0000
  Ti  Ti41      1.0  0.98725  0.25273  0.38212  1.0000
  Ti  Ti42      1.0  0.99211  0.26984  0.68936  1.0000
  Ti  Ti43      1.0  0.94201  0.51765  0.25784  1.0000
  Ti  Ti44      1.0  0.91862  0.54282  0.56430  1.0000
  Ti  Ti45      1.0  0.95175  0.52649  0.89541  1.0000
  Ti  Ti46      1.0  0.78299  0.90924  0.24310  1.0000
  Ti  Ti47      1.0  0.81396  0.91568  0.58951  1.0000
  Ti  Ti48      1.0  0.80216  0.91114  0.92568  1.0000
  Ti  Ti49      1.0  0.28390  0.08728  0.81478  1.0000
  Ti  Ti50      1.0  0.17061  0.11097  0.20447  1.0000
  Ti  Ti51      1.0  0.21335  0.09135  0.54996  1.0000
  Ti  Ti52      1.0  0.13943  0.40887  0.01047  1.0000
  Ti  Ti53      1.0  0.12533  0.42104  0.34631  1.0000
  Ti  Ti54      1.0  0.13186  0.40961  0.70085  1.0000
  Ti  Ti55      1.0  0.99840  0.70141  0.35619  1.0000
  Ti  Ti56      1.0  0.97517  0.68651  0.71116  1.0000
  Ti  Ti57      1.0  0.98040  0.70512  0.00077  1.0000
  Ti  Ti58      1.0  0.99285  0.89571  0.10407  1.0000
  Ti  Ti59      1.0  0.99937  0.91972  0.41766  1.0000
  Ti  Ti60      1.0  0.00504  0.89567  0.76475  1.0000
  Ti  Ti61      1.0  0.49547  0.09908  0.09292  1.0000
  Ti  Ti62      1.0  0.50118  0.07996  0.43218  1.0000
  Ti  Ti63      1.0  0.51306  0.09999  0.74576  1.0000
  Ti  Ti64      1.0  0.33132  0.39993  0.28817  1.0000
  Ti  Ti65      1.0  0.30870  0.45603  0.58276  1.0000
  Ti  Ti66      1.0  0.26598  0.51433  0.92544  1.0000
  Ti  Ti67      1.0  0.31833  0.72069  0.48216  1.0000
  Ti  Ti68      1.0  0.30354  0.62660  0.78144  1.0000
  Ti  Ti69      1.0  0.22669  0.66140  0.24000  1.0000
  Ti  Ti70      1.0  0.34416  0.86449  0.76742  1.0000
  Ti  Ti71      1.0  0.33454  0.85632  0.21361  1.0000
  Ti  Ti72      1.0  0.45676  0.94786  0.17153  1.0000
  Ti  Ti73      1.0  0.56062  0.25878  0.29084  1.0000
  Ti  Ti74      1.0  0.55955  0.26580  0.60670  1.0000
  Ti  Ti75      1.0  0.54617  0.27157  0.95727  1.0000
  Ti  Ti76      1.0  0.55806  0.46389  0.96152  1.0000
  Ti  Ti77      1.0  0.54488  0.47444  0.29447  1.0000
  Ti  Ti78      1.0  0.55028  0.44872  0.62506  1.0000
  Ti  Ti79      1.0  0.63824  0.58528  0.98224  1.0000
  Ti  Ti80      1.0  0.60937  0.61009  0.31600  1.0000
  Ti  Ti81      1.0  0.66521  0.53650  0.64411  1.0000
  Ti  Ti82      1.0  0.65439  0.80832  0.12586  1.0000
  Ti  Ti83      1.0  0.65267  0.81262  0.45820  1.0000
  Ti  Ti84      1.0  0.65148  0.81714  0.77644  1.0000
  Ti  Ti85      1.0  0.83292  0.14891  0.09842  1.0000
  Ti  Ti86      1.0  0.82892  0.16929  0.42409  1.0000
  Ti  Ti87      1.0  0.85299  0.17213  0.77510  1.0000
  Ti  Ti88      1.0  0.90413  0.35499  0.88849  1.0000
  Ti  Ti89      1.0  0.94889  0.32498  0.21213  1.0000
  Ti  Ti90      1.0  0.92918  0.32237  0.53135  1.0000
  Ti  Ti91      1.0  0.89729  0.59248  0.06217  1.0000
  Ti  Ti92      1.0  0.87772  0.59482  0.40238  1.0000
  Ti  Ti93      1.0  0.87703  0.58658  0.74635  1.0000
  Ti  Ti94      1.0  0.72544  0.94731  0.07074  1.0000
  Ti  Ti95      1.0  0.74129  0.94076  0.43290  1.0000
  Ti  Ti96      1.0  0.74879  0.93907  0.74263  1.0000
  I   I1        1.0  0.19700  0.07480  0.10774  1.0000
  I   I2        1.0  0.19149  0.05311  0.45629  1.0000
  I   I3        1.0  0.29502  0.04574  0.72429  1.0000
  I   I4        1.0  0.09786  0.39945  0.24794  1.0000
  I   I5        1.0  0.10660  0.40905  0.58940  1.0000
  I   I6        1.0  0.10189  0.40209  0.92472  1.0000
  I   I7        1.0  0.94174  0.66857  0.63203  1.0000
  I   I8        1.0  0.99160  0.65819  0.91245  1.0000
  I   I9        1.0  0.97505  0.68035  0.26250  1.0000
  I   I10       1.0  0.00102  0.87216  0.32960  1.0000
  I   I11       1.0  0.01988  0.87301  0.65740  1.0000
  I   I12       1.0  0.00392  0.84818  0.00946  1.0000
  I   I13       1.0  0.50964  0.03718  0.31631  1.0000
  I   I14       1.0  0.50337  0.06027  0.65680  1.0000
  I   I15       1.0  0.47985  0.08382  0.98649  1.0000
  I   I16       1.0  0.29476  0.40665  0.53154  1.0000
  I   I17       1.0  0.26397  0.49026  0.80725  1.0000
  I   I18       1.0  0.31606  0.36854  0.19766  1.0000
  I   I19       1.0  0.33527  0.59676  0.68086  1.0000
  I   I20       1.0  0.22029  0.60198  0.24031  1.0000
  I   I21       1.0  0.28297  0.69492  0.40903  1.0000
  I   I22       1.0  0.27087  0.88089  0.24927  1.0000
  I   I23       1.0  0.32951  0.92877  0.17067  1.0000
  I   I24       1.0  0.37979  0.81546  0.68616  1.0000
  I   I25       1.0  0.55774  0.22609  0.50882  1.0000
  I   I26       1.0  0.53889  0.24401  0.83789  1.0000
  I   I27       1.0  0.55280  0.23536  0.17313  1.0000
  I   I28       1.0  0.53590  0.44880  0.18797  1.0000
  I   I29       1.0  0.53735  0.42701  0.53230  1.0000
  I   I30       1.0  0.55479  0.42426  0.86574  1.0000
  I   I31       1.0  0.61855  0.56263  0.22576  1.0000
  I   I32       1.0  0.65189  0.51686  0.53421  1.0000
  I   I33       1.0  0.63509  0.54430  0.89479  1.0000
  I   I34       1.0  0.64504  0.78074  0.35649  1.0000
  I   I35       1.0  0.63849  0.77617  0.67698  1.0000
  I   I36       1.0  0.63747  0.78523  0.02767  1.0000
  I   I37       1.0  0.78809  0.16916  0.33653  1.0000
  I   I38       1.0  0.80769  0.19133  0.67093  1.0000
  I   I39       1.0  0.80045  0.14554  0.99760  1.0000
  I   I40       1.0  0.91877  0.30747  0.12365  1.0000
  I   I41       1.0  0.92130  0.28058  0.44465  1.0000
  I   I42       1.0  0.89805  0.33072  0.79029  1.0000
  I   I43       1.0  0.87015  0.54847  0.29538  1.0000
  I   I44       1.0  0.85485  0.56080  0.64862  1.0000
  I   I45       1.0  0.88570  0.55619  0.97097  1.0000
  I   I46       1.0  0.72894  0.91270  0.31763  1.0000
  I   I47       1.0  0.75845  0.89638  0.64612  1.0000
  I   I48       1.0  0.74284  0.90738  0.97433  1.0000
  I   I49       1.0  0.27853  0.13147  0.91806  1.0000
  I   I50       1.0  0.15472  0.11737  0.32761  1.0000
  I   I51       1.0  0.23621  0.12196  0.62494  1.0000
  I   I52       1.0  0.17381  0.40089  0.11927  1.0000
  I   I53       1.0  0.15147  0.42329  0.46066  1.0000
  I   I54       1.0  0.16940  0.40551  0.80578  1.0000
  I   I55       1.0  0.04877  0.71074  0.42937  1.0000
  I   I56       1.0  0.01291  0.71591  0.76661  1.0000
  I   I57       1.0  0.00552  0.71841  0.10416  1.0000
  I   I58       1.0  0.00206  0.93276  0.19680  1.0000
  I   I59       1.0  0.01627  0.94725  0.50499  1.0000
  I   I60       1.0  0.00320  0.92206  0.87340  1.0000
  I   I61       1.0  0.51185  0.11392  0.22071  1.0000
  I   I62       1.0  0.53027  0.09916  0.51949  1.0000
  I   I63       1.0  0.53265  0.11799  0.84791  1.0000
  I   I64       1.0  0.37046  0.40581  0.38260  1.0000
  I   I65       1.0  0.33146  0.48840  0.67691  1.0000
  I   I66       1.0  0.28329  0.53657  0.01733  1.0000
  I   I67       1.0  0.36910  0.73483  0.51463  1.0000
  I   I68       1.0  0.35759  0.58001  0.85739  1.0000
  I   I69       1.0  0.24790  0.71804  0.24737  1.0000
  I   I70       1.0  0.30841  0.92300  0.85922  1.0000
  I   I71       1.0  0.40223  0.83690  0.15761  1.0000
  I   I72       1.0  0.49327  0.96179  0.24725  1.0000
  I   I73       1.0  0.58896  0.26882  0.38891  1.0000
  I   I74       1.0  0.56365  0.29056  0.72008  1.0000
  I   I75       1.0  0.57617  0.28360  0.05350  1.0000
  I   I76       1.0  0.57556  0.48353  0.06534  1.0000
  I   I77       1.0  0.57355  0.47880  0.40543  1.0000
  I   I78       1.0  0.58315  0.46613  0.72441  1.0000
  I   I79       1.0  0.64200  0.61938  0.08264  1.0000
  I   I80       1.0  0.61623  0.65792  0.37234  1.0000
  I   I81       1.0  0.67611  0.57123  0.75032  1.0000
  I   I82       1.0  0.68123  0.83101  0.22541  1.0000
  I   I83       1.0  0.67085  0.83002  0.55707  1.0000
  I   I84       1.0  0.67007  0.82919  0.89127  1.0000
  I   I85       1.0  0.86577  0.13074  0.20710  1.0000
  I   I86       1.0  0.87568  0.15479  0.52786  1.0000
  I   I87       1.0  0.87799  0.13890  0.89728  1.0000
  I   I88       1.0  0.93073  0.35708  0.00542  1.0000
  I   I89       1.0  0.98071  0.31840  0.32597  1.0000
  I   I90       1.0  0.95752  0.33493  0.62667  1.0000
  I   I91       1.0  0.92641  0.60575  0.15412  1.0000
  I   I92       1.0  0.88927  0.62114  0.50886  1.0000
  I   I93       1.0  0.91971  0.59525  0.84013  1.0000
  I   I94       1.0  0.71810  0.97469  0.18269  1.0000
  I   I95       1.0  0.75695  0.97005  0.52400  1.0000
  I   I96       1.0  0.75472  0.97715  0.85541  1.0000
  I   I97       1.0  0.30810  0.12716  0.72539  1.0000
  I   I98       1.0  0.30722  0.06573  0.05216  1.0000
  I   I99       1.0  0.22971  0.10865  0.43138  1.0000
  I   I100      1.0  0.19774  0.34735  0.95963  1.0000
  I   I101      1.0  0.18229  0.35901  0.28119  1.0000
  I   I102      1.0  0.19199  0.36310  0.62492  1.0000
  I   I103      1.0  0.06454  0.68110  0.25744  1.0000
  I   I104      1.0  0.06129  0.68500  0.58188  1.0000
  I   I105      1.0  0.05472  0.68092  0.94412  1.0000
  I   I106      1.0  0.04124  0.90666  0.02656  1.0000
  I   I107      1.0  0.06913  0.89885  0.37480  1.0000
  I   I108      1.0  0.07032  0.90462  0.72136  1.0000
  I   I109      1.0  0.55062  0.09390  0.02044  1.0000
  I   I110      1.0  0.56145  0.07289  0.36443  1.0000
  I   I111      1.0  0.57923  0.05213  0.68860  1.0000
  I   I112      1.0  0.40018  0.33988  0.26203  1.0000
  I   I113      1.0  0.37757  0.39026  0.57409  1.0000
  I   I114      1.0  0.33416  0.48488  0.87470  1.0000
  I   I115      1.0  0.34420  0.70790  0.34738  1.0000
  I   I116      1.0  0.43999  0.64619  0.62761  1.0000
  I   I117      1.0  0.30956  0.72371  0.88305  1.0000
  I   I118      1.0  0.38616  0.82222  0.85884  1.0000
  I   I119      1.0  0.21431  0.99274  0.79979  1.0000
  I   I120      1.0  0.43008  0.90972  0.10722  1.0000
  I   I121      1.0  0.62251  0.24358  0.22519  1.0000
  I   I122      1.0  0.63710  0.23262  0.56058  1.0000
  I   I123      1.0  0.61413  0.25124  0.90148  1.0000
  I   I124      1.0  0.61774  0.44447  0.88356  1.0000
  I   I125      1.0  0.61042  0.44921  0.24032  1.0000
  I   I126      1.0  0.61046  0.44268  0.54106  1.0000
  I   I127      1.0  0.71091  0.55251  0.93142  1.0000
  I   I128      1.0  0.67699  0.60590  0.24379  1.0000
  I   I129      1.0  0.73286  0.49963  0.60348  1.0000
  I   I130      1.0  0.72218  0.78136  0.04733  1.0000
  I   I131      1.0  0.71905  0.79665  0.39652  1.0000
  I   I132      1.0  0.72080  0.78514  0.72268  1.0000
  I   I133      1.0  0.87054  0.08183  0.04708  1.0000
  I   I134      1.0  0.86951  0.09913  0.38103  1.0000
  I   I135      1.0  0.89275  0.10758  0.69747  1.0000
  I   I136      1.0  0.00672  0.30774  0.75989  1.0000
  I   I137      1.0  0.00415  0.28633  0.12521  1.0000
  I   I138      1.0  0.00067  0.28486  0.48123  1.0000
  I   I139      1.0  0.95741  0.56390  0.99383  1.0000
  I   I140      1.0  0.94173  0.56649  0.34501  1.0000
  I   I141      1.0  0.94274  0.55868  0.67407  1.0000
  I   I142      1.0  0.78067  0.95846  0.02389  1.0000
  I   I143      1.0  0.79427  0.93695  0.33893  1.0000
  I   I144      1.0  0.81079  0.93996  0.69716  1.0000
  I   I145      1.0  0.35738  0.06242  0.82551  1.0000
  I   I146      1.0  0.18597  0.04289  0.26167  1.0000
  I   I147      1.0  0.29150  0.05298  0.55044  1.0000
  I   I148      1.0  0.10675  0.37291  0.08982  1.0000
  I   I149      1.0  0.11976  0.36398  0.42649  1.0000
  I   I150      1.0  0.13280  0.35070  0.75416  1.0000
  I   I151      1.0  0.03158  0.63118  0.40306  1.0000
  I   I152      1.0  0.02924  0.62303  0.74687  1.0000
  I   I153      1.0  0.02537  0.63966  0.06236  1.0000
  I   I154      1.0  0.05807  0.84353  0.16036  1.0000
  I   I155      1.0  0.09483  0.82237  0.53120  1.0000
  I   I156      1.0  0.05349  0.82521  0.83140  1.0000
  I   I157      1.0  0.54187  0.02700  0.15107  1.0000
  I   I158      1.0  0.55205  0.00682  0.47872  1.0000
  I   I159      1.0  0.50452  0.05092  0.82251  1.0000
  I   I160      1.0  0.33332  0.34644  0.38036  1.0000
  I   I161      1.0  0.30255  0.42216  0.69749  1.0000
  I   I162      1.0  0.35270  0.38410  0.03907  1.0000
  I   I163      1.0  0.36205  0.65279  0.51667  1.0000
  I   I164      1.0  0.27148  0.66217  0.89634  1.0000
  I   I165      1.0  0.30236  0.61946  0.24827  1.0000
  I   I166      1.0  0.29697  0.84645  0.79406  1.0000
  I   I167      1.0  0.36210  0.88462  0.31066  1.0000
  I   I168      1.0  0.50871  0.82519  0.77915  1.0000
  I   I169      1.0  0.60214  0.18530  0.35171  1.0000
  I   I170      1.0  0.58832  0.20515  0.67528  1.0000
  I   I171      1.0  0.59100  0.19572  0.02061  1.0000
  I   I172      1.0  0.59497  0.39008  0.02832  1.0000
  I   I173      1.0  0.58186  0.39552  0.34536  1.0000
  I   I174      1.0  0.59679  0.38234  0.68369  1.0000
  I   I175      1.0  0.67560  0.52137  0.05959  1.0000
  I   I176      1.0  0.65793  0.55483  0.38376  1.0000
  I   I177      1.0  0.67732  0.49289  0.73800  1.0000
  I   I178      1.0  0.69691  0.74575  0.18583  1.0000
  I   I179      1.0  0.67839  0.74650  0.52123  1.0000
  I   I180      1.0  0.65654  0.76099  0.85237  1.0000
  I   I181      1.0  0.80217  0.10954  0.16613  1.0000
  I   I182      1.0  0.80639  0.13414  0.51615  1.0000
  I   I183      1.0  0.81281  0.13619  0.81669  1.0000
  I   I184      1.0  0.93161  0.28060  0.92613  1.0000
  I   I185      1.0  0.95989  0.25133  0.26845  1.0000
  I   I186      1.0  0.94175  0.26422  0.61619  1.0000
  I   I187      1.0  0.92343  0.49982  0.15405  1.0000
  I   I188      1.0  0.89246  0.53290  0.46714  1.0000
  I   I189      1.0  0.90750  0.51978  0.80573  1.0000
  I   I190      1.0  0.75922  0.88832  0.14836  1.0000
  I   I191      1.0  0.80666  0.88412  0.47885  1.0000
  I   I192      1.0  0.80143  0.88470  0.81820  1.0000
  I   I193      1.0  0.36303  0.10381  0.97338  1.0000
  I   I194      1.0  0.25302  0.06881  0.25636  1.0000
  I   I195      1.0  0.32721  0.12231  0.54541  1.0000
  I   I196      1.0  0.21666  0.30047  0.13323  1.0000
  I   I197      1.0  0.22198  0.32210  0.46994  1.0000
  I   I198      1.0  0.22855  0.30572  0.81403  1.0000
  I   I199      1.0  0.13463  0.61451  0.44798  1.0000
  I   I200      1.0  0.10602  0.66329  0.80255  1.0000
  I   I201      1.0  0.11493  0.64916  0.11579  1.0000
  I   I202      1.0  0.10061  0.90227  0.21053  1.0000
  I   I203      1.0  0.11315  0.91195  0.57799  1.0000
  I   I204      1.0  0.10734  0.86920  0.88094  1.0000
  I   I205      1.0  0.61089  0.06371  0.20905  1.0000
  I   I206      1.0  0.62356  0.02096  0.53649  1.0000
  I   I207      1.0  0.60604  0.02572  0.87762  1.0000
  I   I208      1.0  0.42762  0.32247  0.44889  1.0000
  I   I209      1.0  0.39965  0.40214  0.76902  1.0000
  I   I210      1.0  0.44082  0.36258  0.11099  1.0000
  I   I211      1.0  0.46505  0.67472  0.48380  1.0000
  I   I212      1.0  0.35393  0.65817  0.75852  1.0000
  I   I213      1.0  0.34977  0.66852  0.20551  1.0000
  I   I214      1.0  0.22117  0.89879  0.88765  1.0000
  I   I215      1.0  0.45768  0.84902  0.26298  1.0000
  I   I216      1.0  0.45595  0.84977  0.92024  1.0000
  I   I217      1.0  0.68277  0.19955  0.40690  1.0000
  I   I218      1.0  0.65900  0.22159  0.75576  1.0000
  I   I219      1.0  0.67350  0.21685  0.07552  1.0000
  I   I220      1.0  0.67168  0.41034  0.09415  1.0000
  I   I221      1.0  0.67187  0.39888  0.40388  1.0000
  I   I222      1.0  0.68171  0.38225  0.74836  1.0000
  I   I223      1.0  0.73752  0.55310  0.10004  1.0000
  I   I224      1.0  0.75664  0.54804  0.47615  1.0000
  I   I225      1.0  0.76641  0.49236  0.78128  1.0000
  I   I226      1.0  0.77409  0.74548  0.24723  1.0000
  I   I227      1.0  0.76466  0.73856  0.57877  1.0000
  I   I228      1.0  0.75673  0.74759  0.89640  1.0000
  I   I229      1.0  0.89283  0.03872  0.24207  1.0000
  I   I230      1.0  0.89156  0.05392  0.55263  1.0000
  I   I231      1.0  0.90062  0.04385  0.87693  1.0000
  I   I232      1.0  0.02332  0.26782  0.95608  1.0000
  I   I233      1.0  0.05388  0.22404  0.34911  1.0000
  I   I234      1.0  0.05169  0.22987  0.63210  1.0000
  I   I235      1.0  0.00238  0.51589  0.21776  1.0000
  I   I236      1.0  0.97589  0.54141  0.52373  1.0000
  I   I237      1.0  0.01499  0.51503  0.86388  1.0000
  I   I238      1.0  0.82364  0.92704  0.18328  1.0000
  I   I239      1.0  0.84956  0.94690  0.55091  1.0000
  I   I240      1.0  0.85663  0.92385  0.89017  1.0000
  I   I241      1.0  0.38940  0.99958  0.96835  1.0000
  I   I242      1.0  0.28019  0.00920  0.39682  1.0000
  I   I243      1.0  0.37871  0.04307  0.64939  1.0000
  I   I244      1.0  0.14888  0.29122  0.20407  1.0000
  I   I245      1.0  0.15514  0.29673  0.56007  1.0000
  I   I246      1.0  0.15408  0.29192  0.90281  1.0000
  I   I247      1.0  0.07066  0.59456  0.55210  1.0000
  I   I248      1.0  0.09670  0.58655  0.86616  1.0000
  I   I249      1.0  0.06788  0.59153  0.19925  1.0000
  I   I250      1.0  0.09979  0.81586  0.30344  1.0000
  I   I251      1.0  0.14440  0.82557  0.66320  1.0000
  I   I252      1.0  0.10018  0.80038  0.98828  1.0000
  I   I253      1.0  0.61612  0.98437  0.27137  1.0000
  I   I254      1.0  0.58235  0.96755  0.63817  1.0000
  I   I255      1.0  0.55039  0.99632  0.96318  1.0000
  I   I256      1.0  0.36391  0.29860  0.52277  1.0000
  I   I257      1.0  0.31990  0.39556  0.85193  1.0000
  I   I258      1.0  0.40153  0.29916  0.11038  1.0000
  I   I259      1.0  0.45465  0.58691  0.45930  1.0000
  I   I260      1.0  0.39633  0.63580  0.91141  1.0000
  I   I261      1.0  0.36371  0.60581  0.35351  1.0000
  I   I262      1.0  0.21101  0.91229  0.71836  1.0000
  I   I263      1.0  0.40438  0.95091  0.25780  1.0000
  I   I264      1.0  0.48069  0.75675  0.81586  1.0000
  I   I265      1.0  0.64951  0.14426  0.51629  1.0000
  I   I266      1.0  0.62340  0.15568  0.84237  1.0000
  I   I267      1.0  0.64736  0.14616  0.14593  1.0000
  I   I268      1.0  0.62693  0.36617  0.19744  1.0000
  I   I269      1.0  0.62227  0.34516  0.47882  1.0000
  I   I270      1.0  0.64528  0.33839  0.85606  1.0000
  I   I271      1.0  0.71984  0.49650  0.20299  1.0000
  I   I272      1.0  0.74109  0.47077  0.42771  1.0000
  I   I273      1.0  0.73269  0.45330  0.88731  1.0000
  I   I274      1.0  0.72246  0.70280  0.33725  1.0000
  I   I275      1.0  0.72161  0.69922  0.67959  1.0000
  I   I276      1.0  0.72498  0.69452  0.98485  1.0000
  I   I277      1.0  0.79521  0.07012  0.30252  1.0000
  I   I278      1.0  0.81240  0.09191  0.66889  1.0000
  I   I279      1.0  0.80011  0.07128  0.91781  1.0000
  I   I280      1.0  0.97232  0.22238  0.06050  1.0000
  I   I281      1.0  0.00150  0.19114  0.40774  1.0000
  I   I282      1.0  0.98490  0.22466  0.75839  1.0000
  I   I283      1.0  0.96513  0.45965  0.32754  1.0000
  I   I284      1.0  0.94487  0.47475  0.59166  1.0000
  I   I285      1.0  0.97381  0.46640  0.96249  1.0000
  I   I286      1.0  0.82116  0.84262  0.27237  1.0000
  I   I287      1.0  0.86482  0.84743  0.60994  1.0000
  I   I288      1.0  0.85102  0.85052  0.97379  1.0000
  I   I289      1.0  0.29744  0.03539  0.89114  1.0000
  I   I290      1.0  0.10615  0.13569  0.17699  1.0000
  I   I291      1.0  0.20382  0.05527  0.63525  1.0000
  I   I292      1.0  0.08965  0.46565  0.06700  1.0000
  I   I293      1.0  0.06893  0.46814  0.39096  1.0000
  I   I294      1.0  0.07020  0.44555  0.75589  1.0000
  I   I295      1.0  0.95144  0.70995  0.43695  1.0000
  I   I296      1.0  0.92587  0.70828  0.79836  1.0000
  I   I297      1.0  0.92688  0.70936  0.05520  1.0000
  I   I298      1.0  0.94643  0.88193  0.16157  1.0000
  I   I299      1.0  0.96023  0.90612  0.49014  1.0000
  I   I300      1.0  0.96258  0.86797  0.78207  1.0000
  I   I301      1.0  0.43069  0.10826  0.11812  1.0000
  I   I302      1.0  0.45990  0.05797  0.46728  1.0000
  I   I303      1.0  0.44805  0.14661  0.75117  1.0000
  I   I304      1.0  0.26813  0.44246  0.30286  1.0000
  I   I305      1.0  0.24019  0.49559  0.57953  1.0000
  I   I306      1.0  0.25791  0.46795  0.98967  1.0000
  I   I307      1.0  0.29083  0.72682  0.58959  1.0000
  I   I308      1.0  0.27561  0.58189  0.79191  1.0000
  I   I309      1.0  0.18142  0.68023  0.32686  1.0000
  I   I310      1.0  0.30231  0.92330  0.70973  1.0000
  I   I311      1.0  0.32253  0.83281  0.11633  1.0000
  I   I312      1.0  0.40286  0.00828  0.13568  1.0000
  I   I313      1.0  0.50498  0.26004  0.34042  1.0000
  I   I314      1.0  0.49531  0.27284  0.61488  1.0000
  I   I315      1.0  0.49139  0.26749  0.99395  1.0000
  I   I316      1.0  0.51074  0.44752  0.00505  1.0000
  I   I317      1.0  0.48665  0.47771  0.34241  1.0000
  I   I318      1.0  0.49125  0.46398  0.68118  1.0000
  I   I319      1.0  0.57709  0.59641  0.02394  1.0000
  I   I320      1.0  0.56143  0.60636  0.38578  1.0000
  I   I321      1.0  0.59852  0.58317  0.66130  1.0000
  I   I322      1.0  0.60346  0.80695  0.19433  1.0000
  I   I323      1.0  0.59014  0.82018  0.49445  1.0000
  I   I324      1.0  0.58716  0.85533  0.79522  1.0000
  I   I325      1.0  0.77873  0.20138  0.14147  1.0000
  I   I326      1.0  0.77502  0.23142  0.45885  1.0000
  I   I327      1.0  0.81620  0.23315  0.83174  1.0000
  I   I328      1.0  0.83804  0.38234  0.91117  1.0000
  I   I329      1.0  0.89585  0.33918  0.28810  1.0000
  I   I330      1.0  0.86887  0.35428  0.57770  1.0000
  I   I331      1.0  0.84192  0.59700  0.12141  1.0000
  I   I332      1.0  0.81094  0.61809  0.43097  1.0000
  I   I333      1.0  0.81817  0.60619  0.80581  1.0000
  I   I334      1.0  0.66986  0.93749  0.07515  1.0000
  I   I335      1.0  0.69845  0.91721  0.47516  1.0000
  I   I336      1.0  0.70673  0.91289  0.78466  1.0000
  I   I337      1.0  0.21760  0.11508  0.81308  1.0000
  I   I338      1.0  0.17544  0.16623  0.16849  1.0000
  I   I339      1.0  0.14946  0.14221  0.53684  1.0000
  I   I340      1.0  0.15406  0.45180  0.94855  1.0000
  I   I341      1.0  0.16550  0.44337  0.30211  1.0000
  I   I342      1.0  0.15014  0.46028  0.67025  1.0000
  I   I343      1.0  0.97609  0.76671  0.31677  1.0000
  I   I344      1.0  0.95238  0.74369  0.64853  1.0000
  I   I345      1.0  0.94539  0.76816  0.94906  1.0000
  I   I346      1.0  0.94369  0.94705  0.05137  1.0000
  I   I347      1.0  0.94999  0.97646  0.37706  1.0000
  I   I348      1.0  0.96364  0.95818  0.72066  1.0000
  I   I349      1.0  0.47583  0.16912  0.08276  1.0000
  I   I350      1.0  0.45519  0.13296  0.37273  1.0000
  I   I351      1.0  0.52309  0.15106  0.69299  1.0000
  I   I352      1.0  0.34043  0.43851  0.19704  1.0000
  I   I353      1.0  0.32314  0.48739  0.49589  1.0000
  I   I354      1.0  0.20131  0.56724  0.91542  1.0000
  I   I355      1.0  0.27522  0.78734  0.44560  1.0000
  I   I356      1.0  0.25074  0.68845  0.74745  1.0000
  I   I357      1.0  0.19167  0.69220  0.14963  1.0000
  I   I358      1.0  0.41474  0.87184  0.74239  1.0000
  I   I359      1.0  0.36144  0.79622  0.27441  1.0000
  I   I360      1.0  0.49360  0.94961  0.07700  1.0000
  I   I361      1.0  0.52400  0.32567  0.26473  1.0000
  I   I362      1.0  0.53708  0.32716  0.54493  1.0000
  I   I363      1.0  0.52342  0.33133  0.91742  1.0000
  I   I364      1.0  0.51420  0.52540  0.91839  1.0000
  I   I365      1.0  0.52804  0.53811  0.27226  1.0000
  I   I366      1.0  0.52205  0.51450  0.59034  1.0000
  I   I367      1.0  0.60622  0.64037  0.91460  1.0000
  I   I368      1.0  0.56594  0.65984  0.23675  1.0000
  I   I369      1.0  0.67497  0.58615  0.56910  1.0000
  I   I370      1.0  0.62378  0.86883  0.07185  1.0000
  I   I371      1.0  0.61820  0.87831  0.41867  1.0000
  I   I372      1.0  0.64542  0.87364  0.71969  1.0000
  I   I373      1.0  0.86557  0.18436  0.06170  1.0000
  I   I374      1.0  0.86456  0.18982  0.36372  1.0000
  I   I375      1.0  0.89950  0.18830  0.72622  1.0000
  I   I376      1.0  0.92779  0.39720  0.85123  1.0000
  I   I377      1.0  0.92775  0.39158  0.19610  1.0000
  I   I378      1.0  0.92702  0.37045  0.45982  1.0000
  I   I379      1.0  0.85716  0.65451  0.01945  1.0000
  I   I380      1.0  0.86264  0.64994  0.33136  1.0000
  I   I381      1.0  0.85954  0.64754  0.69883  1.0000
  I   I382      1.0  0.68666  0.01163  0.01437  1.0000
  I   I383      1.0  0.69496  0.99942  0.40144  1.0000
  I   I384      1.0  0.70512  0.99969  0.69606  1.0000
