data_image0
_chemical_formula_structural       Al500
_chemical_formula_sum              "Al500"
_cell_length_a       21.2918
_cell_length_b       21.2779
_cell_length_c       21.2725
_cell_angle_alpha    90
_cell_angle_beta     90
_cell_angle_gamma    90

_space_group_name_H-M_alt    "P 1"
_space_group_IT_number       1

loop_
  _space_group_symop_operation_xyz
  'x, y, z'

loop_
  _atom_site_type_symbol
  _atom_site_label
  _atom_site_symmetry_multiplicity
  _atom_site_fract_x
  _atom_site_fract_y
  _atom_site_fract_z
  _atom_site_occupancy
  Al  Al1       1.0  0.92571  0.24614  0.57418  1.0000
  Al  Al2       1.0  0.11792  0.89572  0.79954  1.0000
  Al  Al3       1.0  0.41244  0.30907  0.43608  1.0000
  Al  Al4       1.0  0.45962  0.55615  0.83291  1.0000
  Al  Al5       1.0  0.18929  0.31272  0.15094  1.0000
  Al  Al6       1.0  0.07711  0.44919  0.89097  1.0000
  Al  Al7       1.0  0.33835  0.02564  0.69804  1.0000
  Al  Al8       1.0  0.23895  0.31959  0.37604  1.0000
  Al  Al9       1.0  0.85017  0.37048  0.47391  1.0000
  Al  Al10      1.0  0.92738  0.95510  0.56583  1.0000
  Al  Al11      1.0  0.85734  0.49894  0.52482  1.0000
  Al  Al12      1.0  0.89958  0.96628  0.69464  1.0000
  Al  Al13      1.0  0.34878  0.03075  0.84538  1.0000
  Al  Al14      1.0  0.43162  0.97672  0.63362  1.0000
  Al  Al15      1.0  0.84207  0.86264  0.60070  1.0000
  Al  Al16      1.0  0.59549  0.42713  0.59248  1.0000
  Al  Al17      1.0  0.43661  0.92168  0.20855  1.0000
  Al  Al18      1.0  0.81902  0.90400  0.18723  1.0000
  Al  Al19      1.0  0.96005  0.51499  0.63246  1.0000
  Al  Al20      1.0  0.57367  0.95440  0.92292  1.0000
  Al  Al21      1.0  0.78221  0.95124  0.31927  1.0000
  Al  Al22      1.0  0.23033  0.11434  0.90360  1.0000
  Al  Al23      1.0  0.97667  0.26323  0.46083  1.0000
  Al  Al24      1.0  0.43513  0.66079  0.94115  1.0000
  Al  Al25      1.0  0.76820  0.71670  0.58640  1.0000
  Al  Al26      1.0  0.42235  0.62107  0.50961  1.0000
  Al  Al27      1.0  0.13486  0.21495  0.23074  1.0000
  Al  Al28      1.0  0.57238  0.22654  0.18207  1.0000
  Al  Al29      1.0  0.92289  0.69227  0.93295  1.0000
  Al  Al30      1.0  0.51635  0.98920  0.42968  1.0000
  Al  Al31      1.0  0.13012  0.40290  0.39259  1.0000
  Al  Al32      1.0  0.96449  0.99162  0.33025  1.0000
  Al  Al33      1.0  0.08515  0.41153  0.51400  1.0000
  Al  Al34      1.0  0.69345  0.15127  0.81965  1.0000
  Al  Al35      1.0  0.77899  0.59033  0.55923  1.0000
  Al  Al36      1.0  0.91176  0.31147  0.82374  1.0000
  Al  Al37      1.0  0.58896  0.42975  0.95295  1.0000
  Al  Al38      1.0  0.11053  0.04315  0.85918  1.0000
  Al  Al39      1.0  0.48150  0.47470  0.56694  1.0000
  Al  Al40      1.0  0.57909  0.31776  0.83212  1.0000
  Al  Al41      1.0  0.27295  0.62686  0.38450  1.0000
  Al  Al42      1.0  0.59232  0.46247  0.18491  1.0000
  Al  Al43      1.0  0.75923  0.56975  0.03947  1.0000
  Al  Al44      1.0  0.72517  0.11516  0.57717  1.0000
  Al  Al45      1.0  0.17787  0.73249  0.37764  1.0000
  Al  Al46      1.0  0.26800  0.29922  0.50236  1.0000
  Al  Al47      1.0  0.77433  0.96028  0.67161  1.0000
  Al  Al48      1.0  0.22388  0.69278  0.26087  1.0000
  Al  Al49      1.0  0.91927  0.14266  0.70533  1.0000
  Al  Al50      1.0  0.14155  0.04443  0.30683  1.0000
  Al  Al51      1.0  0.99576  0.34386  0.35724  1.0000
  Al  Al52      1.0  0.20907  0.39120  0.02339  1.0000
  Al  Al53      1.0  0.50581  0.10951  0.38476  1.0000
  Al  Al54      1.0  0.96065  0.58469  0.15645  1.0000
  Al  Al55      1.0  0.53766  0.75977  0.97837  1.0000
  Al  Al56      1.0  0.31106  0.95955  0.18681  1.0000
  Al  Al57      1.0  0.43120  0.59710  0.17851  1.0000
  Al  Al58      1.0  0.36653  0.82214  0.75208  1.0000
  Al  Al59      1.0  0.36361  0.17572  0.88190  1.0000
  Al  Al60      1.0  0.97566  0.10191  0.53720  1.0000
  Al  Al61      1.0  0.10355  0.69270  0.97027  1.0000
  Al  Al62      1.0  0.79346  0.92680  0.96073  1.0000
  Al  Al63      1.0  0.74775  0.55163  0.21866  1.0000
  Al  Al64      1.0  0.51330  0.88323  0.35191  1.0000
  Al  Al65      1.0  0.38737  0.90404  0.32456  1.0000
  Al  Al66      1.0  0.36340  0.55640  0.74129  1.0000
  Al  Al67      1.0  0.09362  0.20100  0.95086  1.0000
  Al  Al68      1.0  0.75717  0.77209  0.41494  1.0000
  Al  Al69      1.0  0.94795  0.32833  0.95580  1.0000
  Al  Al70      1.0  0.83826  0.00829  0.86515  1.0000
  Al  Al71      1.0  0.43535  0.23734  0.60675  1.0000
  Al  Al72      1.0  0.89568  0.46241  0.36126  1.0000
  Al  Al73      1.0  0.10034  0.79596  0.88262  1.0000
  Al  Al74      1.0  0.96595  0.05999  0.87944  1.0000
  Al  Al75      1.0  0.25312  0.53499  0.94540  1.0000
  Al  Al76      1.0  0.79601  0.76404  0.15272  1.0000
  Al  Al77      1.0  0.45003  0.16975  0.74661  1.0000
  Al  Al78      1.0  0.61574  0.03553  0.06843  1.0000
  Al  Al79      1.0  0.73320  0.34109  0.46176  1.0000
  Al  Al80      1.0  0.17467  0.64679  0.47775  1.0000
  Al  Al81      1.0  0.82605  0.53624  0.66478  1.0000
  Al  Al82      1.0  0.78949  0.71129  0.90145  1.0000
  Al  Al83      1.0  0.70310  0.46328  0.13562  1.0000
  Al  Al84      1.0  0.08367  0.63274  0.08855  1.0000
  Al  Al85      1.0  0.46348  0.85814  0.62711  1.0000
  Al  Al86      1.0  0.96672  0.99576  0.01888  1.0000
  Al  Al87      1.0  0.18575  0.99336  0.11894  1.0000
  Al  Al88      1.0  0.06369  0.71188  0.33674  1.0000
  Al  Al89      1.0  0.90487  0.82387  0.16310  1.0000
  Al  Al90      1.0  0.49426  0.33987  0.93725  1.0000
  Al  Al91      1.0  0.04786  0.10109  0.35775  1.0000
  Al  Al92      1.0  0.39750  0.37294  0.19267  1.0000
  Al  Al93      1.0  0.30762  0.79204  0.03892  1.0000
  Al  Al94      1.0  0.82184  0.19384  0.62621  1.0000
  Al  Al95      1.0  0.39834  0.25748  0.97231  1.0000
  Al  Al96      1.0  0.26277  0.87500  0.30976  1.0000
  Al  Al97      1.0  0.47106  0.99443  0.12189  1.0000
  Al  Al98      1.0  0.39218  0.72105  0.68424  1.0000
  Al  Al99      1.0  0.50280  0.32625  0.25441  1.0000
  Al  Al100     1.0  0.07154  0.54635  0.52085  1.0000
  Al  Al101     1.0  0.93351  0.14793  0.41179  1.0000
  Al  Al102     1.0  0.59073  0.51601  0.84572  1.0000
  Al  Al103     1.0  0.56031  0.08828  0.15918  1.0000
  Al  Al104     1.0  0.46115  0.46006  0.25996  1.0000
  Al  Al105     1.0  0.23163  0.57357  0.76551  1.0000
  Al  Al106     1.0  0.44843  0.81026  0.29332  1.0000
  Al  Al107     1.0  0.64411  0.04110  0.79728  1.0000
  Al  Al108     1.0  0.83913  0.69801  0.37670  1.0000
  Al  Al109     1.0  0.56436  0.54912  0.52771  1.0000
  Al  Al110     1.0  0.13970  0.73235  0.56782  1.0000
  Al  Al111     1.0  0.79193  0.84956  0.72531  1.0000
  Al  Al112     1.0  0.29185  0.08617  0.42431  1.0000
  Al  Al113     1.0  0.82327  0.47416  0.01403  1.0000
  Al  Al114     1.0  0.81930  0.74423  0.69634  1.0000
  Al  Al115     1.0  0.72870  0.69440  0.30578  1.0000
  Al  Al116     1.0  0.98675  0.66883  0.02508  1.0000
  Al  Al117     1.0  0.98402  0.53832  0.04045  1.0000
  Al  Al118     1.0  0.10882  0.62510  0.73861  1.0000
  Al  Al119     1.0  0.72858  0.96748  0.79902  1.0000
  Al  Al120     1.0  0.27180  0.20851  0.96371  1.0000
  Al  Al121     1.0  0.84732  0.02051  0.06541  1.0000
  Al  Al122     1.0  0.08709  0.17422  0.64346  1.0000
  Al  Al123     1.0  0.15837  0.43445  0.15440  1.0000
  Al  Al124     1.0  0.19100  0.52212  0.57616  1.0000
  Al  Al125     1.0  0.20243  0.49935  0.43860  1.0000
  Al  Al126     1.0  0.36039  0.82414  0.42973  1.0000
  Al  Al127     1.0  0.95104  0.44111  0.83395  1.0000
  Al  Al128     1.0  0.45398  0.91670  0.87202  1.0000
  Al  Al129     1.0  0.92807  0.57599  0.87495  1.0000
  Al  Al130     1.0  0.56676  0.66567  0.88805  1.0000
  Al  Al131     1.0  0.50171  0.02288  0.99641  1.0000
  Al  Al132     1.0  0.36348  0.12866  0.33187  1.0000
  Al  Al133     1.0  0.06164  0.44161  0.04216  1.0000
  Al  Al134     1.0  0.72617  0.70411  0.05604  1.0000
  Al  Al135     1.0  0.61319  0.63178  0.71242  1.0000
  Al  Al136     1.0  0.70119  0.22934  0.95916  1.0000
  Al  Al137     1.0  0.10732  0.87912  0.98726  1.0000
  Al  Al138     1.0  0.10707  0.98778  0.68054  1.0000
  Al  Al139     1.0  0.20921  0.19062  0.46724  1.0000
  Al  Al140     1.0  0.38146  0.50776  0.48162  1.0000
  Al  Al141     1.0  0.19800  0.42164  0.89929  1.0000
  Al  Al142     1.0  0.78183  0.16595  0.19079  1.0000
  Al  Al143     1.0  0.05002  0.67343  0.84708  1.0000
  Al  Al144     1.0  0.69336  0.09063  0.15666  1.0000
  Al  Al145     1.0  0.85142  0.71595  0.49590  1.0000
  Al  Al146     1.0  0.03666  0.32711  0.87977  1.0000
  Al  Al147     1.0  0.85538  0.57712  0.42984  1.0000
  Al  Al148     1.0  0.58022  0.21787  0.59387  1.0000
  Al  Al149     1.0  0.07700  0.03334  0.08694  1.0000
  Al  Al150     1.0  0.81245  0.30196  0.57977  1.0000
  Al  Al151     1.0  0.31460  0.93755  0.42525  1.0000
  Al  Al152     1.0  0.82990  0.22176  0.43710  1.0000
  Al  Al153     1.0  0.30807  0.69196  0.91573  1.0000
  Al  Al154     1.0  0.21653  0.02624  0.78471  1.0000
  Al  Al155     1.0  0.58435  0.18499  0.80721  1.0000
  Al  Al156     1.0  0.70356  0.60274  0.81090  1.0000
  Al  Al157     1.0  0.47098  0.80450  0.12233  1.0000
  Al  Al158     1.0  0.45725  0.44977  0.96216  1.0000
  Al  Al159     1.0  0.29679  0.44034  0.80125  1.0000
  Al  Al160     1.0  0.13338  0.08600  0.19971  1.0000
  Al  Al161     1.0  0.20578  0.86580  0.10289  1.0000
  Al  Al162     1.0  0.83117  0.42866  0.89469  1.0000
  Al  Al163     1.0  0.34084  0.20506  0.21749  1.0000
  Al  Al164     1.0  0.49159  0.64194  0.73247  1.0000
  Al  Al165     1.0  0.06527  0.32119  0.00827  1.0000
  Al  Al166     1.0  0.49502  0.39455  0.79572  1.0000
  Al  Al167     1.0  0.30615  0.61061  0.18606  1.0000
  Al  Al168     1.0  0.38624  0.27960  0.72316  1.0000
  Al  Al169     1.0  0.63546  0.32498  0.66859  1.0000
  Al  Al170     1.0  0.16773  0.40002  0.67694  1.0000
  Al  Al171     1.0  0.15879  0.74554  0.76079  1.0000
  Al  Al172     1.0  0.95849  0.44650  0.12315  1.0000
  Al  Al173     1.0  0.03226  0.53696  0.80634  1.0000
  Al  Al174     1.0  0.48991  0.83557  0.76697  1.0000
  Al  Al175     1.0  0.02282  0.10150  0.97811  1.0000
  Al  Al176     1.0  0.51051  0.76574  0.67801  1.0000
  Al  Al177     1.0  0.29988  0.60110  0.49930  1.0000
  Al  Al178     1.0  0.64384  0.62076  0.15770  1.0000
  Al  Al179     1.0  0.46018  0.10804  0.63631  1.0000
  Al  Al180     1.0  0.58363  0.93263  0.15651  1.0000
  Al  Al181     1.0  0.94491  0.67795  0.72990  1.0000
  Al  Al182     1.0  0.14639  0.85469  0.59568  1.0000
  Al  Al183     1.0  0.71949  0.72628  0.79288  1.0000
  Al  Al184     1.0  0.58873  0.25591  0.44876  1.0000
  Al  Al185     1.0  0.61084  0.81060  0.31557  1.0000
  Al  Al186     1.0  0.53424  0.26733  0.72607  1.0000
  Al  Al187     1.0  0.00424  0.77263  0.12747  1.0000
  Al  Al188     1.0  0.15037  0.33335  0.80615  1.0000
  Al  Al189     1.0  0.74068  0.42801  0.56056  1.0000
  Al  Al190     1.0  0.59886  0.96506  0.29147  1.0000
  Al  Al191     1.0  0.06552  0.93989  0.24974  1.0000
  Al  Al192     1.0  0.92833  0.92141  0.43188  1.0000
  Al  Al193     1.0  0.15122  0.47571  0.77654  1.0000
  Al  Al194     1.0  0.84659  0.74133  0.25982  1.0000
  Al  Al195     1.0  0.90512  0.22075  0.16432  1.0000
  Al  Al196     1.0  0.57785  0.15964  0.06069  1.0000
  Al  Al197     1.0  0.11964  0.13834  0.05710  1.0000
  Al  Al198     1.0  0.06578  0.50849  0.39439  1.0000
  Al  Al199     1.0  0.41179  0.95310  0.76327  1.0000
  Al  Al200     1.0  0.88324  0.36647  0.24479  1.0000
  Al  Al201     1.0  0.79338  0.26401  0.09678  1.0000
  Al  Al202     1.0  0.73689  0.57791  0.38095  1.0000
  Al  Al203     1.0  0.35793  0.75021  0.56644  1.0000
  Al  Al204     1.0  0.93986  0.44330  0.96993  1.0000
  Al  Al205     1.0  0.00981  0.77764  0.95636  1.0000
  Al  Al206     1.0  0.37489  0.39810  0.68137  1.0000
  Al  Al207     1.0  0.60569  0.11051  0.51406  1.0000
  Al  Al208     1.0  0.61232  0.65873  0.01712  1.0000
  Al  Al209     1.0  0.21367  0.21733  0.69105  1.0000
  Al  Al210     1.0  0.02114  0.41314  0.25540  1.0000
  Al  Al211     1.0  0.34522  0.50581  0.61260  1.0000
  Al  Al212     1.0  0.46976  0.49178  0.68937  1.0000
  Al  Al213     1.0  0.27716  0.27590  0.81252  1.0000
  Al  Al214     1.0  0.98203  0.52977  0.29102  1.0000
  Al  Al215     1.0  0.83128  0.14016  0.09061  1.0000
  Al  Al216     1.0  0.38840  0.32582  0.85145  1.0000
  Al  Al217     1.0  0.74437  0.82642  0.27240  1.0000
  Al  Al218     1.0  0.41405  0.24500  0.33530  1.0000
  Al  Al219     1.0  0.89941  0.25440  0.30398  1.0000
  Al  Al220     1.0  0.01793  0.84576  0.58507  1.0000
  Al  Al221     1.0  0.98173  0.00953  0.77398  1.0000
  Al  Al222     1.0  0.77669  0.64878  0.16211  1.0000
  Al  Al223     1.0  0.93500  0.94609  0.12976  1.0000
  Al  Al224     1.0  0.92251  0.88796  0.78629  1.0000
  Al  Al225     1.0  0.48506  0.68950  0.30709  1.0000
  Al  Al226     1.0  0.18870  0.64177  0.63559  1.0000
  Al  Al227     1.0  0.95200  0.86459  0.03782  1.0000
  Al  Al228     1.0  0.16002  0.55283  0.86762  1.0000
  Al  Al229     1.0  0.88563  0.13118  0.25454  1.0000
  Al  Al230     1.0  0.68107  0.54624  0.48895  1.0000
  Al  Al231     1.0  0.00814  0.00599  0.45185  1.0000
  Al  Al232     1.0  0.82117  0.52711  0.79701  1.0000
  Al  Al233     1.0  0.19970  0.90620  0.89753  1.0000
  Al  Al234     1.0  0.57045  0.95028  0.66473  1.0000
  Al  Al235     1.0  0.90463  0.76212  0.81632  1.0000
  Al  Al236     1.0  0.53930  0.57887  0.09896  1.0000
  Al  Al237     1.0  0.97532  0.10053  0.10171  1.0000
  Al  Al238     1.0  0.70393  0.34122  0.90014  1.0000
  Al  Al239     1.0  0.32978  0.86597  0.90799  1.0000
  Al  Al240     1.0  0.98843  0.80098  0.25584  1.0000
  Al  Al241     1.0  0.71865  0.81849  0.99637  1.0000
  Al  Al242     1.0  0.89351  0.05859  0.60913  1.0000
  Al  Al243     1.0  0.97008  0.21295  0.04244  1.0000
  Al  Al244     1.0  0.48235  0.74794  0.55725  1.0000
  Al  Al245     1.0  0.28495  0.71021  0.75197  1.0000
  Al  Al246     1.0  0.68681  0.27402  0.77397  1.0000
  Al  Al247     1.0  0.06160  0.75871  0.46549  1.0000
  Al  Al248     1.0  0.37773  0.91836  0.53023  1.0000
  Al  Al249     1.0  0.86464  0.76403  0.01104  1.0000
  Al  Al250     1.0  0.63180  0.90275  0.03299  1.0000
  Al  Al251     1.0  0.71136  0.40545  0.01560  1.0000
  Al  Al252     1.0  0.03445  0.40405  0.63521  1.0000
  Al  Al253     1.0  0.53059  0.69578  0.18347  1.0000
  Al  Al254     1.0  0.31694  0.40335  0.45126  1.0000
  Al  Al255     1.0  0.78587  0.12222  0.90670  1.0000
  Al  Al256     1.0  0.95676  0.60916  0.37382  1.0000
  Al  Al257     1.0  0.35371  0.50286  0.23109  1.0000
  Al  Al258     1.0  0.90038  0.10784  0.98631  1.0000
  Al  Al259     1.0  0.05796  0.51280  0.15340  1.0000
  Al  Al260     1.0  0.44919  0.25695  0.14664  1.0000
  Al  Al261     1.0  0.75808  0.00410  0.45205  1.0000
  Al  Al262     1.0  0.26733  0.13119  0.55696  1.0000
  Al  Al263     1.0  0.82571  0.04842  0.75169  1.0000
  Al  Al264     1.0  0.78578  0.46862  0.43563  1.0000
  Al  Al265     1.0  0.63026  0.32222  0.01559  1.0000
  Al  Al266     1.0  0.25910  0.75033  0.63285  1.0000
  Al  Al267     1.0  0.78870  0.99372  0.56349  1.0000
  Al  Al268     1.0  0.96410  0.48632  0.45651  1.0000
  Al  Al269     1.0  0.38878  0.05356  0.21735  1.0000
  Al  Al270     1.0  0.06920  0.58044  0.95168  1.0000
  Al  Al271     1.0  0.99313  0.68199  0.24948  1.0000
  Al  Al272     1.0  0.34294  0.57304  0.87147  1.0000
  Al  Al273     1.0  0.52672  0.45455  0.07886  1.0000
  Al  Al274     1.0  0.74035  0.64812  0.68812  1.0000
  Al  Al275     1.0  0.65575  0.73234  0.65622  1.0000
  Al  Al276     1.0  0.69363  0.21365  0.50798  1.0000
  Al  Al277     1.0  0.95548  0.26453  0.69439  1.0000
  Al  Al278     1.0  0.59371  0.76114  0.76638  1.0000
  Al  Al279     1.0  0.70403  0.48412  0.92414  1.0000
  Al  Al280     1.0  0.24741  0.48515  0.68448  1.0000
  Al  Al281     1.0  0.67009  0.99000  0.61387  1.0000
  Al  Al282     1.0  0.27651  0.91858  0.78430  1.0000
  Al  Al283     1.0  0.14108  0.60015  0.36477  1.0000
  Al  Al284     1.0  0.68109  0.52198  0.69216  1.0000
  Al  Al285     1.0  0.88072  0.65369  0.63256  1.0000
  Al  Al286     1.0  0.54293  0.22389  0.31931  1.0000
  Al  Al287     1.0  0.66157  0.18541  0.69408  1.0000
  Al  Al288     1.0  0.02049  0.37207  0.75627  1.0000
  Al  Al289     1.0  0.28713  0.11863  0.76767  1.0000
  Al  Al290     1.0  0.04974  0.35608  0.13272  1.0000
  Al  Al291     1.0  0.92012  0.80209  0.69294  1.0000
  Al  Al292     1.0  0.20197  0.80813  0.96631  1.0000
  Al  Al293     1.0  0.51284  0.62888  0.62312  1.0000
  Al  Al294     1.0  0.48967  0.43256  0.42044  1.0000
  Al  Al295     1.0  0.51101  0.02156  0.55339  1.0000
  Al  Al296     1.0  0.02870  0.89593  0.70903  1.0000
  Al  Al297     1.0  0.56861  0.53762  0.65797  1.0000
  Al  Al298     1.0  0.68799  0.19570  0.09037  1.0000
  Al  Al299     1.0  0.28209  0.30526  0.25042  1.0000
  Al  Al300     1.0  0.26199  0.72934  0.48138  1.0000
  Al  Al301     1.0  0.32878  0.74835  0.30842  1.0000
  Al  Al302     1.0  0.00664  0.19757  0.78591  1.0000
  Al  Al303     1.0  0.57123  0.35969  0.37927  1.0000
  Al  Al304     1.0  0.92195  0.54712  0.75069  1.0000
  Al  Al305     1.0  0.56385  0.94300  0.78574  1.0000
  Al  Al306     1.0  0.83024  0.64717  0.80111  1.0000
  Al  Al307     1.0  0.34506  0.09985  0.97285  1.0000
  Al  Al308     1.0  0.95651  0.72532  0.40831  1.0000
  Al  Al309     1.0  0.15159  0.30374  0.92038  1.0000
  Al  Al310     1.0  0.38637  0.90965  0.09997  1.0000
  Al  Al311     1.0  0.84463  0.05727  0.36035  1.0000
  Al  Al312     1.0  0.69585  0.83573  0.12272  1.0000
  Al  Al313     1.0  0.63592  0.71704  0.40118  1.0000
  Al  Al314     1.0  0.87061  0.22472  0.96585  1.0000
  Al  Al315     1.0  0.30012  0.01045  0.30940  1.0000
  Al  Al316     1.0  0.56022  0.46800  0.31997  1.0000
  Al  Al317     1.0  0.79150  0.83045  0.87883  1.0000
  Al  Al318     1.0  0.88056  0.49305  0.23531  1.0000
  Al  Al319     1.0  0.21725  0.84513  0.70216  1.0000
  Al  Al320     1.0  0.34349  0.15652  0.65978  1.0000
  Al  Al321     1.0  0.39530  0.10356  0.51789  1.0000
  Al  Al322     1.0  0.61754  0.66806  0.28453  1.0000
  Al  Al323     1.0  0.22815  0.96747  0.65822  1.0000
  Al  Al324     1.0  0.95796  0.37502  0.52458  1.0000
  Al  Al325     1.0  0.99472  0.28781  0.23277  1.0000
  Al  Al326     1.0  0.42765  0.81312  0.99257  1.0000
  Al  Al327     1.0  0.79160  0.18501  0.74517  1.0000
  Al  Al328     1.0  0.64130  0.52538  0.04946  1.0000
  Al  Al329     1.0  0.18379  0.58329  0.15714  1.0000
  Al  Al330     1.0  0.87985  0.39878  0.61563  1.0000
  Al  Al331     1.0  0.27016  0.99367  0.92977  1.0000
  Al  Al332     1.0  0.69255  0.32963  0.12322  1.0000
  Al  Al333     1.0  0.52506  0.57948  0.96853  1.0000
  Al  Al334     1.0  0.38668  0.97836  0.96076  1.0000
  Al  Al335     1.0  0.35437  0.44323  0.89703  1.0000
  Al  Al336     1.0  0.53827  0.05709  0.74194  1.0000
  Al  Al337     1.0  0.06050  0.22633  0.13790  1.0000
  Al  Al338     1.0  0.49679  0.35611  0.64442  1.0000
  Al  Al339     1.0  0.19950  0.96176  0.38977  1.0000
  Al  Al340     1.0  0.32630  0.42956  0.02897  1.0000
  Al  Al341     1.0  0.65568  0.17203  0.36702  1.0000
  Al  Al342     1.0  0.61349  0.94339  0.51407  1.0000
  Al  Al343     1.0  0.09787  0.27428  0.71346  1.0000
  Al  Al344     1.0  0.43293  0.36126  0.06458  1.0000
  Al  Al345     1.0  0.05139  0.75342  0.67731  1.0000
  Al  Al346     1.0  0.14660  0.00916  0.96695  1.0000
  Al  Al347     1.0  0.34216  0.89882  0.65064  1.0000
  Al  Al348     1.0  0.73648  0.07521  0.28320  1.0000
  Al  Al349     1.0  0.40646  0.01889  0.39624  1.0000
  Al  Al350     1.0  0.32742  0.17051  0.07650  1.0000
  Al  Al351     1.0  0.38494  0.71147  0.17917  1.0000
  Al  Al352     1.0  0.11854  0.77650  0.07737  1.0000
  Al  Al353     1.0  0.23012  0.18903  0.15546  1.0000
  Al  Al354     1.0  0.14195  0.10020  0.54901  1.0000
  Al  Al355     1.0  0.10688  0.89097  0.48756  1.0000
  Al  Al356     1.0  0.00593  0.85720  0.36916  1.0000
  Al  Al357     1.0  0.50491  0.90051  0.02356  1.0000
  Al  Al358     1.0  0.04598  0.64892  0.61703  1.0000
  Al  Al359     1.0  0.49080  0.02138  0.29477  1.0000
  Al  Al360     1.0  0.24749  0.80444  0.84077  1.0000
  Al  Al361     1.0  0.38970  0.68728  0.39941  1.0000
  Al  Al362     1.0  0.01325  0.05827  0.65999  1.0000
  Al  Al363     1.0  0.67979  0.90605  0.37674  1.0000
  Al  Al364     1.0  0.67083  0.88045  0.86418  1.0000
  Al  Al365     1.0  0.81962  0.34355  0.34972  1.0000
  Al  Al366     1.0  0.39041  0.61258  0.30797  1.0000
  Al  Al367     1.0  0.51203  0.25604  0.04638  1.0000
  Al  Al368     1.0  0.80371  0.57738  0.91226  1.0000
  Al  Al369     1.0  0.25999  0.07599  0.18073  1.0000
  Al  Al370     1.0  0.09525  0.73865  0.20022  1.0000
  Al  Al371     1.0  0.18424  0.09900  0.68633  1.0000
  Al  Al372     1.0  0.31429  0.28309  0.61656  1.0000
  Al  Al373     1.0  0.64928  0.53722  0.28509  1.0000
  Al  Al374     1.0  0.19695  0.80703  0.20572  1.0000
  Al  Al375     1.0  0.18890  0.95612  0.24788  1.0000
  Al  Al376     1.0  0.36328  0.48435  0.36414  1.0000
  Al  Al377     1.0  0.54132  0.83778  0.88579  1.0000
  Al  Al378     1.0  0.97829  0.21900  0.91069  1.0000
  Al  Al379     1.0  0.87629  0.61604  0.02070  1.0000
  Al  Al380     1.0  0.30669  0.33056  0.94859  1.0000
  Al  Al381     1.0  0.23386  0.56080  0.27960  1.0000
  Al  Al382     1.0  0.51382  0.57527  0.25716  1.0000
  Al  Al383     1.0  0.73011  0.97745  0.09160  1.0000
  Al  Al384     1.0  0.27854  0.84908  0.53727  1.0000
  Al  Al385     1.0  0.60880  0.42323  0.72566  1.0000
  Al  Al386     1.0  0.73393  0.10962  0.02041  1.0000
  Al  Al387     1.0  0.88443  0.42955  0.72379  1.0000
  Al  Al388     1.0  0.92421  0.82201  0.49725  1.0000
  Al  Al389     1.0  0.07578  0.10347  0.75470  1.0000
  Al  Al390     1.0  0.75485  0.12600  0.44455  1.0000
  Al  Al391     1.0  0.47291  0.23637  0.85670  1.0000
  Al  Al392     1.0  0.56435  0.83121  0.21057  1.0000
  Al  Al393     1.0  0.87722  0.02437  0.48028  1.0000
  Al  Al394     1.0  0.46638  0.55736  0.39602  1.0000
  Al  Al395     1.0  0.07557  0.99482  0.55217  1.0000
  Al  Al396     1.0  0.86221  0.83394  0.37154  1.0000
  Al  Al397     1.0  0.24435  0.13061  0.29063  1.0000
  Al  Al398     1.0  0.73669  0.39120  0.68624  1.0000
  Al  Al399     1.0  0.32548  0.62463  0.63348  1.0000
  Al  Al400     1.0  0.47268  0.14633  0.98548  1.0000
  Al  Al401     1.0  0.47023  0.85209  0.49476  1.0000
  Al  Al402     1.0  0.28695  0.55164  0.06438  1.0000
  Al  Al403     1.0  0.94064  0.60104  0.52722  1.0000
  Al  Al404     1.0  0.82366  0.61527  0.28833  1.0000
  Al  Al405     1.0  0.48321  0.20024  0.47626  1.0000
  Al  Al406     1.0  0.34863  0.04259  0.08635  1.0000
  Al  Al407     1.0  0.38939  0.56056  0.98262  1.0000
  Al  Al408     1.0  0.39248  0.66475  0.81548  1.0000
  Al  Al409     1.0  0.80658  0.88604  0.48146  1.0000
  Al  Al410     1.0  0.83593  0.31249  0.70847  1.0000
  Al  Al411     1.0  0.58471  0.83352  0.58879  1.0000
  Al  Al412     1.0  0.14006  0.18441  0.35524  1.0000
  Al  Al413     1.0  0.60257  0.08634  0.64009  1.0000
  Al  Al414     1.0  0.78815  0.37287  0.80650  1.0000
  Al  Al415     1.0  0.76632  0.30005  0.25179  1.0000
  Al  Al416     1.0  0.02217  0.94626  0.88279  1.0000
  Al  Al417     1.0  0.28206  0.94663  0.04174  1.0000
  Al  Al418     1.0  0.60084  0.82617  0.46197  1.0000
  Al  Al419     1.0  0.46698  0.08903  0.83793  1.0000
  Al  Al420     1.0  0.05159  0.64055  0.44801  1.0000
  Al  Al421     1.0  0.78270  0.25656  0.85370  1.0000
  Al  Al422     1.0  0.16564  0.08588  0.41827  1.0000
  Al  Al423     1.0  0.79080  0.18340  0.32110  1.0000
  Al  Al424     1.0  0.68922  0.42355  0.36449  1.0000
  Al  Al425     1.0  0.52783  0.35020  0.51964  1.0000
  Al  Al426     1.0  0.15796  0.19630  0.80609  1.0000
  Al  Al427     1.0  0.64653  0.32729  0.54543  1.0000
  Al  Al428     1.0  0.47258  0.68553  0.05466  1.0000
  Al  Al429     1.0  0.58862  0.75484  0.08539  1.0000
  Al  Al430     1.0  0.73070  0.66169  0.46415  1.0000
  Al  Al431     1.0  0.19523  0.63792  0.02851  1.0000
  Al  Al432     1.0  0.68212  0.28549  0.35635  1.0000
  Al  Al433     1.0  0.84541  0.52523  0.11883  1.0000
  Al  Al434     1.0  0.28324  0.44999  0.15518  1.0000
  Al  Al435     1.0  0.35540  0.67591  0.05995  1.0000
  Al  Al436     1.0  0.02127  0.80201  0.79106  1.0000
  Al  Al437     1.0  0.31167  0.29307  0.11528  1.0000
  Al  Al438     1.0  0.31205  0.02686  0.56807  1.0000
  Al  Al439     1.0  0.16650  0.26791  0.58293  1.0000
  Al  Al440     1.0  0.71112  0.07021  0.69961  1.0000
  Al  Al441     1.0  0.60125  0.10049  0.93076  1.0000
  Al  Al442     1.0  0.54128  0.65891  0.46894  1.0000
  Al  Al443     1.0  0.60644  0.08514  0.27669  1.0000
  Al  Al444     1.0  0.91722  0.88414  0.92367  1.0000
  Al  Al445     1.0  0.68087  0.75946  0.52796  1.0000
  Al  Al446     1.0  0.39794  0.35737  0.56470  1.0000
  Al  Al447     1.0  0.12896  0.32561  0.29589  1.0000
  Al  Al448     1.0  0.37433  0.36800  0.33773  1.0000
  Al  Al449     1.0  0.06077  0.89492  0.11233  1.0000
  Al  Al450     1.0  0.11853  0.47749  0.27868  1.0000
  Al  Al451     1.0  0.45156  0.17293  0.23989  1.0000
  Al  Al452     1.0  0.81698  0.39905  0.12653  1.0000
  Al  Al453     1.0  0.25250  0.41532  0.29323  1.0000
  Al  Al454     1.0  0.06953  0.53018  0.68358  1.0000
  Al  Al455     1.0  0.65597  0.86875  0.68367  1.0000
  Al  Al456     1.0  0.56364  0.34933  0.13908  1.0000
  Al  Al457     1.0  0.23363  0.08855  0.03731  1.0000
  Al  Al458     1.0  0.75415  0.42707  0.24498  1.0000
  Al  Al459     1.0  0.42109  0.76942  0.87022  1.0000
  Al  Al460     1.0  0.31739  0.84305  0.19236  1.0000
  Al  Al461     1.0  0.68562  0.73451  0.20358  1.0000
  Al  Al462     1.0  0.26861  0.35577  0.72036  1.0000
  Al  Al463     1.0  0.01994  0.21888  0.35123  1.0000
  Al  Al464     1.0  0.66324  0.62636  0.57545  1.0000
  Al  Al465     1.0  0.69197  0.95172  0.21522  1.0000
  Al  Al466     1.0  0.26892  0.40678  0.58981  1.0000
  Al  Al467     1.0  0.70029  0.99490  0.92119  1.0000
  Al  Al468     1.0  0.82866  0.88304  0.06688  1.0000
  Al  Al469     1.0  0.13195  0.83856  0.30577  1.0000
  Al  Al470     1.0  0.91240  0.68454  0.12848  1.0000
  Al  Al471     1.0  0.81027  0.03867  0.18789  1.0000
  Al  Al472     1.0  0.57960  0.23167  0.92062  1.0000
  Al  Al473     1.0  0.20288  0.83594  0.43228  1.0000
  Al  Al474     1.0  0.19095  0.67423  0.85605  1.0000
  Al  Al475     1.0  0.70797  0.88444  0.56617  1.0000
  Al  Al476     1.0  0.15305  0.52926  0.05161  1.0000
  Al  Al477     1.0  0.12923  0.29138  0.45920  1.0000
  Al  Al478     1.0  0.67756  0.62061  0.92985  1.0000
  Al  Al479     1.0  0.50474  0.77288  0.40857  1.0000
  Al  Al480     1.0  0.64351  0.34513  0.24902  1.0000
  Al  Al481     1.0  0.65156  0.06058  0.40477  1.0000
  Al  Al482     1.0  0.92694  0.32529  0.07161  1.0000
  Al  Al483     1.0  0.00509  0.13379  0.22252  1.0000
  Al  Al484     1.0  0.03743  0.28036  0.57385  1.0000
  Al  Al485     1.0  0.92159  0.90202  0.26535  1.0000
  Al  Al486     1.0  0.62876  0.42062  0.46505  1.0000
  Al  Al487     1.0  0.34728  0.20165  0.45864  1.0000
  Al  Al488     1.0  0.16941  0.25432  0.04188  1.0000
  Al  Al489     1.0  0.67958  0.20533  0.24822  1.0000
  Al  Al490     1.0  0.20325  0.98688  0.52390  1.0000
  Al  Al491     1.0  0.41368  0.50900  0.08544  1.0000
  Al  Al492     1.0  0.69447  0.44922  0.80474  1.0000
  Al  Al493     1.0  0.96932  0.73109  0.56074  1.0000
  Al  Al494     1.0  0.66161  0.76876  0.90384  1.0000
  Al  Al495     1.0  0.59412  0.57364  0.38025  1.0000
  Al  Al496     1.0  0.11357  0.61628  0.24566  1.0000
  Al  Al497     1.0  0.08051  0.16964  0.46878  1.0000
  Al  Al498     1.0  0.44115  0.12713  0.10882  1.0000
  Al  Al499     1.0  0.26465  0.71678  0.12178  1.0000
  Al  Al500     1.0  0.81519  0.34702  0.00316  1.0000
