data_image0
_chemical_formula_structural       W64Cl384
_chemical_formula_sum              "W64 Cl384"
_cell_length_a       57.4645
_cell_length_b       57.4781
_cell_length_c       54.4517
_cell_angle_alpha    55.3188
_cell_angle_beta     55.3188
_cell_angle_gamma    55.3188

_space_group_name_H-M_alt    "P 1"
_space_group_IT_number       1

loop_
  _space_group_symop_operation_xyz
  'x, y, z'

loop_
  _atom_site_type_symbol
  _atom_site_label
  _atom_site_symmetry_multiplicity
  _atom_site_fract_x
  _atom_site_fract_y
  _atom_site_fract_z
  _atom_site_occupancy
  W   W1        1.0  0.70733  0.82205  0.81437  1.0000
  W   W2        1.0  0.13669  0.62120  0.17484  1.0000
  W   W3        1.0  0.79842  0.98171  0.16583  1.0000
  W   W4        1.0  0.83370  0.12802  0.28415  1.0000
  W   W5        1.0  0.58600  0.33491  0.55253  1.0000
  W   W6        1.0  0.14672  0.98063  0.63969  1.0000
  W   W7        1.0  0.98627  0.86197  0.81461  1.0000
  W   W8        1.0  0.60280  0.15016  0.20751  1.0000
  W   W9        1.0  0.97318  0.34826  0.95436  1.0000
  W   W10       1.0  0.41141  0.94012  0.75842  1.0000
  W   W11       1.0  0.29400  0.49521  0.91349  1.0000
  W   W12       1.0  0.45994  0.27970  0.70015  1.0000
  W   W13       1.0  0.99496  0.95376  0.25879  1.0000
  W   W14       1.0  0.75714  0.55644  0.95250  1.0000
  W   W15       1.0  0.27753  0.20577  0.59739  1.0000
  W   W16       1.0  0.63284  0.71426  0.16245  1.0000
  W   W17       1.0  0.63801  0.40839  0.99473  1.0000
  W   W18       1.0  0.76146  0.61996  0.70305  1.0000
  W   W19       1.0  0.67914  0.21335  0.21609  1.0000
  W   W20       1.0  0.08317  0.61883  0.83359  1.0000
  W   W21       1.0  0.32316  0.22723  0.24175  1.0000
  W   W22       1.0  0.28222  0.71477  0.39025  1.0000
  W   W23       1.0  0.74122  0.32000  0.48155  1.0000
  W   W24       1.0  0.94313  0.72071  0.11697  1.0000
  W   W25       1.0  0.76037  0.59289  0.49430  1.0000
  W   W26       1.0  0.99746  0.16096  0.60596  1.0000
  W   W27       1.0  0.25730  0.67299  0.96446  1.0000
  W   W28       1.0  0.32502  0.99522  0.94702  1.0000
  W   W29       1.0  0.83158  0.35221  0.53305  1.0000
  W   W30       1.0  0.00826  0.48803  0.54170  1.0000
  W   W31       1.0  0.60796  0.57535  0.90152  1.0000
  W   W32       1.0  0.88701  0.83950  0.51625  1.0000
  W   W33       1.0  0.24137  0.42657  0.83897  1.0000
  W   W34       1.0  0.39806  0.99948  0.00600  1.0000
  W   W35       1.0  0.09815  0.23033  0.95419  1.0000
  W   W36       1.0  0.29926  0.89312  0.60477  1.0000
  W   W37       1.0  0.46753  0.73679  0.90784  1.0000
  W   W38       1.0  0.07469  0.81158  0.07803  1.0000
  W   W39       1.0  0.78997  0.73330  0.38335  1.0000
  W   W40       1.0  0.70216  0.88762  0.48886  1.0000
  W   W41       1.0  0.26527  0.32909  0.06893  1.0000
  W   W42       1.0  0.21730  0.96239  0.26222  1.0000
  W   W43       1.0  0.26517  0.77849  0.16714  1.0000
  W   W44       1.0  0.30735  0.56460  0.18988  1.0000
  W   W45       1.0  0.74445  0.35797  0.28013  1.0000
  W   W46       1.0  0.37638  0.17060  0.62963  1.0000
  W   W47       1.0  0.30287  0.35942  0.54712  1.0000
  W   W48       1.0  0.93826  0.35389  0.67513  1.0000
  W   W49       1.0  0.77303  0.99177  0.67785  1.0000
  W   W50       1.0  0.12124  0.20569  0.65926  1.0000
  W   W51       1.0  0.18570  0.35382  0.76049  1.0000
  W   W52       1.0  0.16897  0.63821  0.66438  1.0000
  W   W53       1.0  0.57452  0.10090  0.96635  1.0000
  W   W54       1.0  0.19066  0.97602  0.74585  1.0000
  W   W55       1.0  0.45877  0.42814  0.21206  1.0000
  W   W56       1.0  0.13642  0.86466  0.38243  1.0000
  W   W57       1.0  0.33256  0.72231  0.61697  1.0000
  W   W58       1.0  0.42022  0.51908  0.60928  1.0000
  W   W59       1.0  0.40310  0.75794  0.76379  1.0000
  W   W60       1.0  0.04316  0.25369  0.84021  1.0000
  W   W61       1.0  0.61641  0.49518  0.80776  1.0000
  W   W62       1.0  0.85867  0.03640  0.46532  1.0000
  W   W63       1.0  0.47149  0.89029  0.93851  1.0000
  W   W64       1.0  0.03675  0.26725  0.37990  1.0000
  Cl  Cl1       1.0  0.71963  0.63883  0.74083  1.0000
  Cl  Cl2       1.0  0.69482  0.22085  0.16378  1.0000
  Cl  Cl3       1.0  0.11351  0.59849  0.79496  1.0000
  Cl  Cl4       1.0  0.61140  0.46196  0.98052  1.0000
  Cl  Cl5       1.0  0.25261  0.68733  0.43109  1.0000
  Cl  Cl6       1.0  0.77051  0.30532  0.50953  1.0000
  Cl  Cl7       1.0  0.97588  0.67359  0.13630  1.0000
  Cl  Cl8       1.0  0.33916  0.25163  0.25033  1.0000
  Cl  Cl9       1.0  0.98273  0.21370  0.59309  1.0000
  Cl  Cl10      1.0  0.27229  0.66682  0.99879  1.0000
  Cl  Cl11      1.0  0.36875  0.00364  0.90837  1.0000
  Cl  Cl12      1.0  0.76283  0.60267  0.44695  1.0000
  Cl  Cl13      1.0  0.00487  0.53976  0.50869  1.0000
  Cl  Cl14      1.0  0.57431  0.55174  0.92242  1.0000
  Cl  Cl15      1.0  0.83872  0.84301  0.53763  1.0000
  Cl  Cl16      1.0  0.79885  0.33036  0.58587  1.0000
  Cl  Cl17      1.0  0.36183  0.04614  0.98285  1.0000
  Cl  Cl18      1.0  0.10384  0.18334  0.99343  1.0000
  Cl  Cl19      1.0  0.28062  0.93472  0.61806  1.0000
  Cl  Cl20      1.0  0.19844  0.42173  0.88099  1.0000
  Cl  Cl21      1.0  0.06143  0.77685  0.13038  1.0000
  Cl  Cl22      1.0  0.77827  0.75898  0.41606  1.0000
  Cl  Cl23      1.0  0.66791  0.92118  0.51658  1.0000
  Cl  Cl24      1.0  0.50803  0.72242  0.91756  1.0000
  Cl  Cl25      1.0  0.27011  0.94030  0.25091  1.0000
  Cl  Cl26      1.0  0.26627  0.79081  0.20010  1.0000
  Cl  Cl27      1.0  0.31525  0.58711  0.20810  1.0000
  Cl  Cl28      1.0  0.29464  0.34648  0.06887  1.0000
  Cl  Cl29      1.0  0.33312  0.16385  0.67572  1.0000
  Cl  Cl30      1.0  0.29718  0.40734  0.53604  1.0000
  Cl  Cl31      1.0  0.97227  0.37244  0.65529  1.0000
  Cl  Cl32      1.0  0.77826  0.35047  0.23017  1.0000
  Cl  Cl33      1.0  0.11532  0.25557  0.63518  1.0000
  Cl  Cl34      1.0  0.14583  0.33825  0.80832  1.0000
  Cl  Cl35      1.0  0.18445  0.63920  0.69523  1.0000
  Cl  Cl36      1.0  0.72980  0.98634  0.72352  1.0000
  Cl  Cl37      1.0  0.15171  0.98131  0.79263  1.0000
  Cl  Cl38      1.0  0.44676  0.38887  0.26340  1.0000
  Cl  Cl39      1.0  0.15197  0.88226  0.32768  1.0000
  Cl  Cl40      1.0  0.54815  0.06818  0.99523  1.0000
  Cl  Cl41      1.0  0.47023  0.48022  0.60780  1.0000
  Cl  Cl42      1.0  0.36237  0.73868  0.79029  1.0000
  Cl  Cl43      1.0  0.04867  0.29659  0.79653  1.0000
  Cl  Cl44      1.0  0.30489  0.76175  0.64016  1.0000
  Cl  Cl45      1.0  0.89358  0.00950  0.48826  1.0000
  Cl  Cl46      1.0  0.52304  0.87365  0.91379  1.0000
  Cl  Cl47      1.0  0.01765  0.28993  0.34110  1.0000
  Cl  Cl48      1.0  0.66229  0.49517  0.79280  1.0000
  Cl  Cl49      1.0  0.15158  0.66518  0.14544  1.0000
  Cl  Cl50      1.0  0.80749  0.99415  0.11194  1.0000
  Cl  Cl51      1.0  0.83757  0.15540  0.23182  1.0000
  Cl  Cl52      1.0  0.69853  0.87170  0.78724  1.0000
  Cl  Cl53      1.0  0.11427  0.99815  0.61534  1.0000
  Cl  Cl54      1.0  0.02003  0.81652  0.83442  1.0000
  Cl  Cl55      1.0  0.60984  0.17273  0.15392  1.0000
  Cl  Cl56      1.0  0.55270  0.31191  0.59209  1.0000
  Cl  Cl57      1.0  0.38571  0.91395  0.80612  1.0000
  Cl  Cl58      1.0  0.30100  0.44616  0.93823  1.0000
  Cl  Cl59      1.0  0.41027  0.30364  0.70764  1.0000
  Cl  Cl60      1.0  0.99871  0.33325  0.91421  1.0000
  Cl  Cl61      1.0  0.80713  0.54094  0.91520  1.0000
  Cl  Cl62      1.0  0.24701  0.20074  0.58701  1.0000
  Cl  Cl63      1.0  0.61463  0.76621  0.14402  1.0000
  Cl  Cl64      1.0  0.04188  0.94424  0.21809  1.0000
  Cl  Cl65      1.0  0.28378  0.27501  0.23797  1.0000
  Cl  Cl66      1.0  0.31079  0.69734  0.41644  1.0000
  Cl  Cl67      1.0  0.78756  0.31253  0.44209  1.0000
  Cl  Cl68      1.0  0.97958  0.74362  0.09442  1.0000
  Cl  Cl69      1.0  0.79991  0.54231  0.49971  1.0000
  Cl  Cl70      1.0  0.99538  0.15882  0.65000  1.0000
  Cl  Cl71      1.0  0.30239  0.65282  0.92691  1.0000
  Cl  Cl72      1.0  0.34766  0.95606  0.98096  1.0000
  Cl  Cl73      1.0  0.78923  0.38845  0.51883  1.0000
  Cl  Cl74      1.0  0.95899  0.50506  0.56634  1.0000
  Cl  Cl75      1.0  0.57183  0.61699  0.88027  1.0000
  Cl  Cl76      1.0  0.89653  0.83734  0.55215  1.0000
  Cl  Cl77      1.0  0.66848  0.42121  0.94044  1.0000
  Cl  Cl78      1.0  0.76713  0.57248  0.73918  1.0000
  Cl  Cl79      1.0  0.63942  0.20302  0.23307  1.0000
  Cl  Cl80      1.0  0.07348  0.57382  0.86882  1.0000
  Cl  Cl81      1.0  0.48630  0.76974  0.85786  1.0000
  Cl  Cl82      1.0  0.11927  0.78052  0.05503  1.0000
  Cl  Cl83      1.0  0.76485  0.78162  0.35490  1.0000
  Cl  Cl84      1.0  0.72636  0.92155  0.45434  1.0000
  Cl  Cl85      1.0  0.30887  0.32184  0.02306  1.0000
  Cl  Cl86      1.0  0.22877  0.99366  0.20694  1.0000
  Cl  Cl87      1.0  0.29530  0.80607  0.12086  1.0000
  Cl  Cl88      1.0  0.26191  0.60688  0.18826  1.0000
  Cl  Cl89      1.0  0.78355  0.33291  0.29894  1.0000
  Cl  Cl90      1.0  0.35953  0.17392  0.59605  1.0000
  Cl  Cl91      1.0  0.32482  0.35097  0.57683  1.0000
  Cl  Cl92      1.0  0.92862  0.37429  0.62832  1.0000
  Cl  Cl93      1.0  0.25912  0.43978  0.85706  1.0000
  Cl  Cl94      1.0  0.35622  0.98497  0.04557  1.0000
  Cl  Cl95      1.0  0.07729  0.25210  0.98974  1.0000
  Cl  Cl96      1.0  0.35095  0.88365  0.58824  1.0000
  Cl  Cl97      1.0  0.62163  0.06799  0.96620  1.0000
  Cl  Cl98      1.0  0.20935  0.00599  0.73825  1.0000
  Cl  Cl99      1.0  0.49322  0.39153  0.19015  1.0000
  Cl  Cl100     1.0  0.14778  0.89821  0.38141  1.0000
  Cl  Cl101     1.0  0.28945  0.71227  0.65539  1.0000
  Cl  Cl102     1.0  0.44517  0.55009  0.56136  1.0000
  Cl  Cl103     1.0  0.38293  0.76954  0.80794  1.0000
  Cl  Cl104     1.0  0.00921  0.26033  0.82393  1.0000
  Cl  Cl105     1.0  0.60240  0.54504  0.77383  1.0000
  Cl  Cl106     1.0  0.85418  0.99287  0.47975  1.0000
  Cl  Cl107     1.0  0.46666  0.94066  0.91626  1.0000
  Cl  Cl108     1.0  0.06544  0.29112  0.36808  1.0000
  Cl  Cl109     1.0  0.76524  0.98295  0.64709  1.0000
  Cl  Cl110     1.0  0.09531  0.21764  0.62946  1.0000
  Cl  Cl111     1.0  0.19155  0.36465  0.79132  1.0000
  Cl  Cl112     1.0  0.13337  0.61651  0.71170  1.0000
  Cl  Cl113     1.0  0.60374  0.30436  0.52658  1.0000
  Cl  Cl114     1.0  0.14823  0.92876  0.66844  1.0000
  Cl  Cl115     1.0  0.95019  0.83790  0.85697  1.0000
  Cl  Cl116     1.0  0.59232  0.19125  0.21280  1.0000
  Cl  Cl117     1.0  0.96263  0.39946  0.92008  1.0000
  Cl  Cl118     1.0  0.40276  0.98715  0.75882  1.0000
  Cl  Cl119     1.0  0.30717  0.49445  0.86450  1.0000
  Cl  Cl120     1.0  0.45173  0.31006  0.72088  1.0000
  Cl  Cl121     1.0  0.02627  0.92352  0.28880  1.0000
  Cl  Cl122     1.0  0.74353  0.53790  0.93730  1.0000
  Cl  Cl123     1.0  0.25896  0.25441  0.56205  1.0000
  Cl  Cl124     1.0  0.61564  0.71842  0.13110  1.0000
  Cl  Cl125     1.0  0.66079  0.83686  0.81239  1.0000
  Cl  Cl126     1.0  0.12974  0.61387  0.14244  1.0000
  Cl  Cl127     1.0  0.80889  0.93312  0.17956  1.0000
  Cl  Cl128     1.0  0.81634  0.17683  0.28634  1.0000
  Cl  Cl129     1.0  0.18352  0.96671  0.59461  1.0000
  Cl  Cl130     1.0  0.98239  0.87267  0.85503  1.0000
  Cl  Cl131     1.0  0.55455  0.16225  0.21054  1.0000
  Cl  Cl132     1.0  0.55096  0.37994  0.52656  1.0000
  Cl  Cl133     1.0  0.45805  0.91671  0.75946  1.0000
  Cl  Cl134     1.0  0.24378  0.49936  0.93607  1.0000
  Cl  Cl135     1.0  0.45410  0.23417  0.74643  1.0000
  Cl  Cl136     1.0  0.92706  0.36098  0.94913  1.0000
  Cl  Cl137     1.0  0.77425  0.50984  0.98930  1.0000
  Cl  Cl138     1.0  0.23501  0.20891  0.64525  1.0000
  Cl  Cl139     1.0  0.68070  0.70452  0.12168  1.0000
  Cl  Cl140     1.0  0.99962  0.99130  0.25695  1.0000
  Cl  Cl141     1.0  0.18815  0.60053  0.15091  1.0000
  Cl  Cl142     1.0  0.84894  0.97991  0.14492  1.0000
  Cl  Cl143     1.0  0.78274  0.13980  0.30397  1.0000
  Cl  Cl144     1.0  0.73324  0.82280  0.76136  1.0000
  Cl  Cl145     1.0  0.32135  0.68412  0.36111  1.0000
  Cl  Cl146     1.0  0.74190  0.27289  0.51592  1.0000
  Cl  Cl147     1.0  0.96727  0.71473  0.06778  1.0000
  Cl  Cl148     1.0  0.34450  0.24262  0.18719  1.0000
  Cl  Cl149     1.0  0.94915  0.16040  0.63604  1.0000
  Cl  Cl150     1.0  0.24577  0.62759  0.00647  1.0000
  Cl  Cl151     1.0  0.31151  0.02197  0.97855  1.0000
  Cl  Cl152     1.0  0.80330  0.60792  0.46550  1.0000
  Cl  Cl153     1.0  0.99916  0.48206  0.50868  1.0000
  Cl  Cl154     1.0  0.58057  0.58742  0.94818  1.0000
  Cl  Cl155     1.0  0.89843  0.78770  0.54373  1.0000
  Cl  Cl156     1.0  0.82516  0.37731  0.55827  1.0000
  Cl  Cl157     1.0  0.72591  0.61423  0.69767  1.0000
  Cl  Cl158     1.0  0.71666  0.16460  0.21743  1.0000
  Cl  Cl159     1.0  0.11846  0.60634  0.84861  1.0000
  Cl  Cl160     1.0  0.67072  0.39702  0.01238  1.0000
  Cl  Cl161     1.0  0.05352  0.79012  0.07524  1.0000
  Cl  Cl162     1.0  0.83772  0.73687  0.35068  1.0000
  Cl  Cl163     1.0  0.73527  0.85823  0.51144  1.0000
  Cl  Cl164     1.0  0.48320  0.70488  0.88492  1.0000
  Cl  Cl165     1.0  0.22571  0.92918  0.24183  1.0000
  Cl  Cl166     1.0  0.31602  0.74370  0.16530  1.0000
  Cl  Cl167     1.0  0.32913  0.58786  0.13643  1.0000
  Cl  Cl168     1.0  0.28702  0.27971  0.08974  1.0000
  Cl  Cl169     1.0  0.35181  0.22462  0.61576  1.0000
  Cl  Cl170     1.0  0.25586  0.36342  0.58646  1.0000
  Cl  Cl171     1.0  0.97390  0.30878  0.66947  1.0000
  Cl  Cl172     1.0  0.74193  0.40787  0.25257  1.0000
  Cl  Cl173     1.0  0.40633  0.97850  0.97532  1.0000
  Cl  Cl174     1.0  0.14723  0.21453  0.95180  1.0000
  Cl  Cl175     1.0  0.29767  0.86539  0.65775  1.0000
  Cl  Cl176     1.0  0.26716  0.37897  0.86748  1.0000
  Cl  Cl177     1.0  0.22198  0.93255  0.77460  1.0000
  Cl  Cl178     1.0  0.42823  0.42811  0.19872  1.0000
  Cl  Cl179     1.0  0.08817  0.90011  0.38406  1.0000
  Cl  Cl180     1.0  0.58687  0.09982  0.91943  1.0000
  Cl  Cl181     1.0  0.41887  0.49381  0.58982  1.0000
  Cl  Cl182     1.0  0.43524  0.70769  0.79119  1.0000
  Cl  Cl183     1.0  0.08058  0.22347  0.80959  1.0000
  Cl  Cl184     1.0  0.30918  0.74269  0.58176  1.0000
  Cl  Cl185     1.0  0.82293  0.03622  0.51797  1.0000
  Cl  Cl186     1.0  0.46353  0.89720  0.89725  1.0000
  Cl  Cl187     1.0  0.99748  0.29880  0.40722  1.0000
  Cl  Cl188     1.0  0.63098  0.49049  0.75837  1.0000
  Cl  Cl189     1.0  0.16899  0.18530  0.62339  1.0000
  Cl  Cl190     1.0  0.20936  0.30361  0.77448  1.0000
  Cl  Cl191     1.0  0.14395  0.68828  0.65445  1.0000
  Cl  Cl192     1.0  0.73780  0.04254  0.65744  1.0000
  Cl  Cl193     1.0  0.62560  0.35141  0.50264  1.0000
  Cl  Cl194     1.0  0.19190  0.95865  0.64895  1.0000
  Cl  Cl195     1.0  0.94851  0.91076  0.80782  1.0000
  Cl  Cl196     1.0  0.59101  0.12487  0.26205  1.0000
  Cl  Cl197     1.0  0.93498  0.37470  0.99018  1.0000
  Cl  Cl198     1.0  0.42833  0.96620  0.70493  1.0000
  Cl  Cl199     1.0  0.26864  0.54897  0.89509  1.0000
  Cl  Cl200     1.0  0.50983  0.26071  0.68757  1.0000
  Cl  Cl201     1.0  0.94852  0.96604  0.29702  1.0000
  Cl  Cl202     1.0  0.70652  0.57198  0.98794  1.0000
  Cl  Cl203     1.0  0.29463  0.23071  0.59939  1.0000
  Cl  Cl204     1.0  0.64513  0.66456  0.19682  1.0000
  Cl  Cl205     1.0  0.71415  0.77208  0.83834  1.0000
  Cl  Cl206     1.0  0.13215  0.57668  0.21674  1.0000
  Cl  Cl207     1.0  0.79421  0.96388  0.21666  1.0000
  Cl  Cl208     1.0  0.83526  0.09869  0.33585  1.0000
  Cl  Cl209     1.0  0.29904  0.20148  0.24502  1.0000
  Cl  Cl210     1.0  0.30017  0.75452  0.34904  1.0000
  Cl  Cl211     1.0  0.72996  0.32336  0.44380  1.0000
  Cl  Cl212     1.0  0.91992  0.77148  0.08817  1.0000
  Cl  Cl213     1.0  0.75729  0.58338  0.54223  1.0000
  Cl  Cl214     1.0  0.01306  0.10766  0.62688  1.0000
  Cl  Cl215     1.0  0.23874  0.67446  0.93744  1.0000
  Cl  Cl216     1.0  0.27874  0.98935  0.97003  1.0000
  Cl  Cl217     1.0  0.85708  0.37949  0.48527  1.0000
  Cl  Cl218     1.0  0.02214  0.43571  0.58020  1.0000
  Cl  Cl219     1.0  0.63871  0.60040  0.87460  1.0000
  Cl  Cl220     1.0  0.94032  0.83361  0.48642  1.0000
  Cl  Cl221     1.0  0.65562  0.35710  0.01266  1.0000
  Cl  Cl222     1.0  0.80628  0.60570  0.66285  1.0000
  Cl  Cl223     1.0  0.66420  0.20066  0.27372  1.0000
  Cl  Cl224     1.0  0.05170  0.64751  0.86365  1.0000
  Cl  Cl225     1.0  0.42722  0.76488  0.89274  1.0000
  Cl  Cl226     1.0  0.07077  0.84120  0.02964  1.0000
  Cl  Cl227     1.0  0.78703  0.72234  0.35139  1.0000
  Cl  Cl228     1.0  0.72998  0.85362  0.45994  1.0000
  Cl  Cl229     1.0  0.24006  0.32634  0.05144  1.0000
  Cl  Cl230     1.0  0.16326  0.97990  0.28146  1.0000
  Cl  Cl231     1.0  0.26903  0.76642  0.13040  1.0000
  Cl  Cl232     1.0  0.29853  0.54316  0.17256  1.0000
  Cl  Cl233     1.0  0.71057  0.36986  0.32577  1.0000
  Cl  Cl234     1.0  0.41680  0.18015  0.58115  1.0000
  Cl  Cl235     1.0  0.30882  0.30950  0.57548  1.0000
  Cl  Cl236     1.0  0.90367  0.32884  0.69956  1.0000
  Cl  Cl237     1.0  0.28764  0.41721  0.79265  1.0000
  Cl  Cl238     1.0  0.42559  0.95248  0.02971  1.0000
  Cl  Cl239     1.0  0.10183  0.27932  0.91181  1.0000
  Cl  Cl240     1.0  0.31889  0.85575  0.58700  1.0000
  Cl  Cl241     1.0  0.59885  0.13420  0.93273  1.0000
  Cl  Cl242     1.0  0.22923  0.97669  0.69441  1.0000
  Cl  Cl243     1.0  0.47011  0.46578  0.15709  1.0000
  Cl  Cl244     1.0  0.11491  0.84575  0.43669  1.0000
  Cl  Cl245     1.0  0.35135  0.67044  0.62476  1.0000
  Cl  Cl246     1.0  0.37757  0.55851  0.59742  1.0000
  Cl  Cl247     1.0  0.43670  0.77748  0.74270  1.0000
  Cl  Cl248     1.0  0.04936  0.20905  0.88378  1.0000
  Cl  Cl249     1.0  0.57296  0.48619  0.82876  1.0000
  Cl  Cl250     1.0  0.81316  0.06383  0.45566  1.0000
  Cl  Cl251     1.0  0.42692  0.89205  0.98178  1.0000
  Cl  Cl252     1.0  0.05370  0.23609  0.42138  1.0000
  Cl  Cl253     1.0  0.81573  0.00006  0.62556  1.0000
  Cl  Cl254     1.0  0.12777  0.15463  0.68056  1.0000
  Cl  Cl255     1.0  0.23459  0.35306  0.72816  1.0000
  Cl  Cl256     1.0  0.15078  0.63170  0.64080  1.0000
  Cl  Cl257     1.0  0.14580  0.62142  0.21043  1.0000
  Cl  Cl258     1.0  0.77598  0.02894  0.16579  1.0000
  Cl  Cl259     1.0  0.84211  0.08398  0.28114  1.0000
  Cl  Cl260     1.0  0.74775  0.81965  0.81671  1.0000
  Cl  Cl261     1.0  0.14635  0.02872  0.62049  1.0000
  Cl  Cl262     1.0  0.02474  0.87469  0.76929  1.0000
  Cl  Cl263     1.0  0.61888  0.09921  0.21363  1.0000
  Cl  Cl264     1.0  0.57606  0.37075  0.56952  1.0000
  Cl  Cl265     1.0  0.41705  0.90320  0.74587  1.0000
  Cl  Cl266     1.0  0.28952  0.49626  0.95921  1.0000
  Cl  Cl267     1.0  0.45883  0.25619  0.67717  1.0000
  Cl  Cl268     1.0  0.97797  0.30148  0.99314  1.0000
  Cl  Cl269     1.0  0.77619  0.57393  0.96568  1.0000
  Cl  Cl270     1.0  0.29177  0.15335  0.63311  1.0000
  Cl  Cl271     1.0  0.65998  0.72152  0.17619  1.0000
  Cl  Cl272     1.0  0.97840  0.97145  0.22054  1.0000
  Cl  Cl273     1.0  0.75305  0.66860  0.66364  1.0000
  Cl  Cl274     1.0  0.71387  0.22407  0.21184  1.0000
  Cl  Cl275     1.0  0.09103  0.66496  0.79310  1.0000
  Cl  Cl276     1.0  0.60188  0.40663  0.04364  1.0000
  Cl  Cl277     1.0  0.25821  0.73208  0.35733  1.0000
  Cl  Cl278     1.0  0.69285  0.33183  0.51525  1.0000
  Cl  Cl279     1.0  0.90345  0.70772  0.13618  1.0000
  Cl  Cl280     1.0  0.36998  0.18372  0.24160  1.0000
  Cl  Cl281     1.0  0.99069  0.17021  0.56287  1.0000
  Cl  Cl282     1.0  0.20909  0.70263  0.98746  1.0000
  Cl  Cl283     1.0  0.29135  0.04604  0.92400  1.0000
  Cl  Cl284     1.0  0.73294  0.63876  0.49537  1.0000
  Cl  Cl285     1.0  0.05704  0.47514  0.50707  1.0000
  Cl  Cl286     1.0  0.64062  0.53182  0.93248  1.0000
  Cl  Cl287     1.0  0.89008  0.84885  0.46844  1.0000
  Cl  Cl288     1.0  0.87958  0.31848  0.54117  1.0000
  Cl  Cl289     1.0  0.43400  0.02147  0.97918  1.0000
  Cl  Cl290     1.0  0.11522  0.22096  0.91261  1.0000
  Cl  Cl291     1.0  0.25462  0.89223  0.62441  1.0000
  Cl  Cl292     1.0  0.22470  0.41001  0.82103  1.0000
  Cl  Cl293     1.0  0.04347  0.85306  0.09193  1.0000
  Cl  Cl294     1.0  0.82123  0.69047  0.41074  1.0000
  Cl  Cl295     1.0  0.66510  0.86457  0.52549  1.0000
  Cl  Cl296     1.0  0.45248  0.69625  0.95186  1.0000
  Cl  Cl297     1.0  0.21259  0.92570  0.31090  1.0000
  Cl  Cl298     1.0  0.25394  0.73438  0.20208  1.0000
  Cl  Cl299     1.0  0.35246  0.52637  0.18741  1.0000
  Cl  Cl300     1.0  0.23315  0.32736  0.12240  1.0000
  Cl  Cl301     1.0  0.39422  0.17509  0.65514  1.0000
  Cl  Cl302     1.0  0.28181  0.37622  0.51143  1.0000
  Cl  Cl303     1.0  0.93119  0.33855  0.72766  1.0000
  Cl  Cl304     1.0  0.70465  0.38239  0.26491  1.0000
  Cl  Cl305     1.0  0.15257  0.19568  0.67842  1.0000
  Cl  Cl306     1.0  0.17777  0.34843  0.72538  1.0000
  Cl  Cl307     1.0  0.21536  0.64264  0.62162  1.0000
  Cl  Cl308     1.0  0.78808  0.00477  0.69659  1.0000
  Cl  Cl309     1.0  0.17777  0.94881  0.74000  1.0000
  Cl  Cl310     1.0  0.42617  0.47090  0.22730  1.0000
  Cl  Cl311     1.0  0.13221  0.82840  0.37845  1.0000
  Cl  Cl312     1.0  0.53234  0.14287  0.97109  1.0000
  Cl  Cl313     1.0  0.39688  0.49095  0.66276  1.0000
  Cl  Cl314     1.0  0.42003  0.74591  0.72200  1.0000
  Cl  Cl315     1.0  0.07685  0.26242  0.84256  1.0000
  Cl  Cl316     1.0  0.37225  0.73156  0.57289  1.0000
  Cl  Cl317     1.0  0.86230  0.07958  0.45389  1.0000
  Cl  Cl318     1.0  0.47096  0.84289  0.95783  1.0000
  Cl  Cl319     1.0  0.00406  0.23924  0.41344  1.0000
  Cl  Cl320     1.0  0.63484  0.44555  0.84521  1.0000
  Cl  Cl321     1.0  0.60210  0.41464  0.98206  1.0000
  Cl  Cl322     1.0  0.78659  0.63461  0.71316  1.0000
  Cl  Cl323     1.0  0.64991  0.26514  0.20552  1.0000
  Cl  Cl324     1.0  0.03496  0.63569  0.83058  1.0000
  Cl  Cl325     1.0  0.30976  0.20582  0.29580  1.0000
  Cl  Cl326     1.0  0.24271  0.74893  0.42046  1.0000
  Cl  Cl327     1.0  0.72652  0.37467  0.45866  1.0000
  Cl  Cl328     1.0  0.93068  0.72044  0.16505  1.0000
  Cl  Cl329     1.0  0.71954  0.58110  0.52111  1.0000
  Cl  Cl330     1.0  0.04858  0.15816  0.57703  1.0000
  Cl  Cl331     1.0  0.27120  0.71729  0.93181  1.0000
  Cl  Cl332     1.0  0.33503  0.97456  0.91445  1.0000
  Cl  Cl333     1.0  0.84147  0.32036  0.51303  1.0000
  Cl  Cl334     1.0  0.02538  0.49509  0.56550  1.0000
  Cl  Cl335     1.0  0.64002  0.55652  0.86121  1.0000
  Cl  Cl336     1.0  0.86076  0.89193  0.50177  1.0000
  Cl  Cl337     1.0  0.22453  0.47461  0.80331  1.0000
  Cl  Cl338     1.0  0.37858  0.02052  0.04283  1.0000
  Cl  Cl339     1.0  0.05032  0.24217  0.95604  1.0000
  Cl  Cl340     1.0  0.28403  0.93178  0.55583  1.0000
  Cl  Cl341     1.0  0.44107  0.76251  0.94588  1.0000
  Cl  Cl342     1.0  0.10590  0.81179  0.09701  1.0000
  Cl  Cl343     1.0  0.75488  0.71269  0.42325  1.0000
  Cl  Cl344     1.0  0.67150  0.92003  0.45531  1.0000
  Cl  Cl345     1.0  0.23387  0.38070  0.05751  1.0000
  Cl  Cl346     1.0  0.20833  0.00305  0.26610  1.0000
  Cl  Cl347     1.0  0.22123  0.81614  0.16670  1.0000
  Cl  Cl348     1.0  0.28992  0.53431  0.24514  1.0000
  Cl  Cl349     1.0  0.73581  0.31728  0.29288  1.0000
  Cl  Cl350     1.0  0.39696  0.12070  0.64792  1.0000
  Cl  Cl351     1.0  0.34410  0.33692  0.50831  1.0000
  Cl  Cl352     1.0  0.89743  0.40165  0.67651  1.0000
  Cl  Cl353     1.0  0.79672  0.94019  0.70172  1.0000
  Cl  Cl354     1.0  0.07117  0.21956  0.69555  1.0000
  Cl  Cl355     1.0  0.16089  0.40691  0.73984  1.0000
  Cl  Cl356     1.0  0.19541  0.58639  0.67071  1.0000
  Cl  Cl357     1.0  0.57684  0.10347  0.00879  1.0000
  Cl  Cl358     1.0  0.15199  0.01559  0.72303  1.0000
  Cl  Cl359     1.0  0.49788  0.42768  0.21255  1.0000
  Cl  Cl360     1.0  0.18564  0.83455  0.37733  1.0000
  Cl  Cl361     1.0  0.36205  0.70396  0.64557  1.0000
  Cl  Cl362     1.0  0.41377  0.54284  0.63673  1.0000
  Cl  Cl363     1.0  0.36627  0.80624  0.75043  1.0000
  Cl  Cl364     1.0  0.99867  0.27380  0.87977  1.0000
  Cl  Cl365     1.0  0.59840  0.51083  0.84720  1.0000
  Cl  Cl366     1.0  0.89017  0.03950  0.41225  1.0000
  Cl  Cl367     1.0  0.48724  0.88449  0.97327  1.0000
  Cl  Cl368     1.0  0.07437  0.23911  0.34596  1.0000
  Cl  Cl369     1.0  0.67503  0.81890  0.86832  1.0000
  Cl  Cl370     1.0  0.08715  0.65298  0.18500  1.0000
  Cl  Cl371     1.0  0.75351  0.98483  0.17095  1.0000
  Cl  Cl372     1.0  0.88199  0.11978  0.27473  1.0000
  Cl  Cl373     1.0  0.61022  0.30415  0.58825  1.0000
  Cl  Cl374     1.0  0.10920  0.98266  0.68877  1.0000
  Cl  Cl375     1.0  0.97937  0.85317  0.78460  1.0000
  Cl  Cl376     1.0  0.65288  0.13880  0.18884  1.0000
  Cl  Cl377     1.0  0.01616  0.34185  0.95382  1.0000
  Cl  Cl378     1.0  0.36769  0.96523  0.74670  1.0000
  Cl  Cl379     1.0  0.33944  0.50027  0.89202  1.0000
  Cl  Cl380     1.0  0.47503  0.31284  0.64567  1.0000
  Cl  Cl381     1.0  0.98942  0.90939  0.27611  1.0000
  Cl  Cl382     1.0  0.75247  0.60569  0.91018  1.0000
  Cl  Cl383     1.0  0.31637  0.19027  0.55323  1.0000
  Cl  Cl384     1.0  0.58178  0.71907  0.19743  1.0000
